<?xml version="1.0" encoding="UTF-8"?>
<!DOCTYPE sfMaterials>
<sfMaterialData>
    <modified_on_date>2018-09-11T08:58:36</modified_on_date>
    <import_date>2015-03-27T13:56:08</import_date>
    <file_version>63061</file_version>
    <name>22MnB5-JMP-MPM_sw</name>
    <class>Welding</class>
    <group>General steel</group>
    <norm>1.5528</norm>
    <source>Simufact</source>
    <author>J. Sakkiettibutra</author>
    <comment>Press hardening steel - welding (multi-phase model) 

Data based on:
JMATPRO-Data
Numisheet Benchmark 2008
Oberpriller, B.; Burkhardt, L.; Griesbach, B: Benchmark 3 - Continuous Press Hardenin. Proc. of Numisheet 2008, Sepember 1-5, 2008, Switzerland. 115-129.
Kießling, R.: Untersuchungen zu den werkstoffspezifischen Versagensmechanismen von Widerstandspunktschweißungen unter Crash- und Ermüdungsbeanspruchung.
Abschlußbericht, BMWi / AiF-Nr. 14.927 N. 

The flow stress of the base material depends on the phase fractions. 
An initial phase mixture has to be defined.
Updated 13.05.2013
Updated 26.03.2014 - improved hardness data
Updated 19.11.2014 - volume_change considers data only during cooling under A3

Electrical material properties based on: 
Wink, H.-J.; Krätschmer, D.: Charakterisierung und Modellierung des Bruchverhaltens von Punktschweißverbindungen in pressgehärteten Stählen, Teil II - Simulation des Schweißprozesses. 
11. LS-DYNA Forum, Ulm, 2012.

Poisson's ratio set to 0.3
Updated 19.05.2015</comment>
    <min_temperature dimension="8" unit="1" unit_symbol="°C">25.0</min_temperature>
    <max_temperature dimension="8" unit="1" unit_symbol="°C">1400.0</max_temperature>
    <min_effective_plastic_strain dimension="-1" unit="0" unit_symbol="-">0.0</min_effective_plastic_strain>
    <max_effective_plastic_strain dimension="-1" unit="0" unit_symbol="-">1.0</max_effective_plastic_strain>
    <min_strain_rate dimension="24" unit="0" unit_symbol="1/s">0.01</min_strain_rate>
    <max_strain_rate dimension="24" unit="0" unit_symbol="1/s">0.01</max_strain_rate>
    <transverse_contraction dimension="-1" unit="0" unit_symbol="-">0.3</transverse_contraction>
    <transverse_contraction_user_selection_datatype>0</transverse_contraction_user_selection_datatype>
    <density dimension="11" unit="0" unit_symbol="kg/m³">7829.77</density>
    <density_user_selection_datatype>0</density_user_selection_datatype>
    <melting_point dimension="8" unit="1" unit_symbol="°C">1507.0</melting_point>
    <solidus_temperature dimension="8" unit="1" unit_symbol="°C">1427.0</solidus_temperature>
    <latent_heat dimension="25" unit="0" unit_symbol="J/kg">256400.0</latent_heat>
    <dissipation_factor dimension="-1" unit="0" unit_symbol="-">0.9</dissipation_factor>
    <dissipation_factor_user_selection_datatype>0</dissipation_factor_user_selection_datatype>
    <electrical_resisitivity_user_selection_datatype>1</electrical_resisitivity_user_selection_datatype>
    <electrical_conductivity_conversion_factor dimension="-1" unit="0" unit_symbol="-">1.0</electrical_conductivity_conversion_factor>
    <diffusivity element="C" phase="Austenite">
        <autoScaling>1</autoScaling>
        <useDefaultEquation>1</useDefaultEquation>
        <scalingFactor>1</scalingFactor>
        <transformationThreshold>0.3</transformationThreshold>
        <value valueType="constant">
            <value>0</value>
            <alphaCoeff auto="false">
                <sfDataTable name="" type="0" columns="2" rows="3" version="12.1">
                    <name></name>
                    <idTag></idTag>
                    <comment></comment>
                    <type>0</type>
                    <columns>2</columns>
                    <rows>3</rows>
                    <columndata title="" type="0" datatype="1" fffunit="-1" unit_symbol="-" usage="1">
                        <name></name>
                    </columndata>
                    <columndata title="" type="0" datatype="1" fffunit="-1" unit_symbol="-" usage="2">
                        <name></name>
                    </columndata>
                    <row nb="1">0;1</row>
                    <row nb="2">0.75;1</row>
                    <row nb="3">1.5;1</row>
                </sfDataTable>
            </alphaCoeff>
            <flowStressScalingFactor auto="false">
                <sfDataTable name="" type="0" columns="2" rows="3" version="12.1">
                    <name></name>
                    <idTag></idTag>
                    <comment></comment>
                    <type>0</type>
                    <columns>2</columns>
                    <rows>3</rows>
                    <columndata title="" type="0" datatype="1" fffunit="-1" unit_symbol="-" usage="1">
                        <name></name>
                    </columndata>
                    <columndata title="" type="0" datatype="1" fffunit="-1" unit_symbol="-" usage="2">
                        <name></name>
                    </columndata>
                    <row nb="1">0;1</row>
                    <row nb="2">0.75;1</row>
                    <row nb="3">1.5;1</row>
                </sfDataTable>
            </flowStressScalingFactor>
            <tripCoeffScalingFactor auto="false">
                <sfDataTable name="" type="0" columns="2" rows="3" version="12.1">
                    <name></name>
                    <idTag></idTag>
                    <comment></comment>
                    <type>0</type>
                    <columns>2</columns>
                    <rows>3</rows>
                    <columndata title="" type="0" datatype="1" fffunit="-1" unit_symbol="-" usage="1">
                        <name></name>
                    </columndata>
                    <columndata title="" type="0" datatype="1" fffunit="-1" unit_symbol="-" usage="2">
                        <name></name>
                    </columndata>
                    <row nb="1">0;1</row>
                    <row nb="2">0.75;1</row>
                    <row nb="3">1.5;1</row>
                </sfDataTable>
            </tripCoeffScalingFactor>
        </value>
    </diffusivity>
    <PowderProperties>
        <avgGrainSize dimension="5" unit="0" Version="1">0.0</avgGrainSize>
        <grainSizeRange dimension="5" unit="0" Version="1">0.0</grainSizeRange>
        <type></type>
        <figures/>
    </PowderProperties>
    <flow_curves_used_approach>0</flow_curves_used_approach>
    <flow_curves_table_approach>
        <usePeakTemperatures>false</usePeakTemperatures>
        <temperatures count="15">
            <temperature dimension="8" unit="1" unit_symbol="°C">25.0</temperature>
            <temperature dimension="8" unit="1" unit_symbol="°C">100.0</temperature>
            <temperature dimension="8" unit="1" unit_symbol="°C">200.0</temperature>
            <temperature dimension="8" unit="1" unit_symbol="°C">300.0</temperature>
            <temperature dimension="8" unit="1" unit_symbol="°C">400.0</temperature>
            <temperature dimension="8" unit="1" unit_symbol="°C">500.0</temperature>
            <temperature dimension="8" unit="1" unit_symbol="°C">600.0</temperature>
            <temperature dimension="8" unit="1" unit_symbol="°C">700.0</temperature>
            <temperature dimension="8" unit="1" unit_symbol="°C">800.0</temperature>
            <temperature dimension="8" unit="1" unit_symbol="°C">900.0</temperature>
            <temperature dimension="8" unit="1" unit_symbol="°C">1000.0</temperature>
            <temperature dimension="8" unit="1" unit_symbol="°C">1100.0</temperature>
            <temperature dimension="8" unit="1" unit_symbol="°C">1200.0</temperature>
            <temperature dimension="8" unit="1" unit_symbol="°C">1300.0</temperature>
            <temperature dimension="8" unit="1" unit_symbol="°C">1400.0</temperature>
        </temperatures>
        <strain_rates count="1">
            <strain_rate dimension="24" unit="0" unit_symbol="1/s">0.01</strain_rate>
        </strain_rates>
        <flow_curve_table>
            <fc_temperature dimension="8" unit="1" unit_symbol="°C">25.0</fc_temperature>
            <fc_strainrate dimension="24" unit="0" unit_symbol="1/s">0.01</fc_strainrate>
            <sfDataTable name="T=25.0 °C,phi_p=0.01 1/s" type="0" columns="2" rows="17" version="12.1">
                <name>T=25.0 °C,phi_p=0.01 1/s</name>
                <idTag>0</idTag>
                <comment></comment>
                <type>0</type>
                <columns>2</columns>
                <rows>17</rows>
                <columndata title="" type="0" datatype="1" fffunit="-1" unit_symbol="-" usage="1">
                    <name></name>
                </columndata>
                <columndata title="" type="0" datatype="1" fffunit="851971" unit_symbol="MPa" usage="2">
                    <name></name>
                </columndata>
                <row nb="1">0;324.962</row>
                <row nb="2">0.02;447.4328</row>
                <row nb="3">0.04;492.6511</row>
                <row nb="4">0.06;521.192</row>
                <row nb="5">0.08;542.4393</row>
                <row nb="6">0.1;559.5146999999999</row>
                <row nb="7">0.12;573.8645</row>
                <row nb="8">0.14;586.2839</row>
                <row nb="9">0.16;597.2591</row>
                <row nb="10">0.18;607.1103000000001</row>
                <row nb="11">0.2;616.0601</row>
                <row nb="12">0.22;624.2699</row>
                <row nb="13">0.26;638.9242</row>
                <row nb="14">0.3;651.7505</row>
                <row nb="15">0.4;678.3202</row>
                <row nb="16">0.6;717.6174999999999</row>
                <row nb="17">1;770.3831</row>
            </sfDataTable>
        </flow_curve_table>
        <flow_curve_table>
            <fc_temperature dimension="8" unit="1" unit_symbol="°C">100.0</fc_temperature>
            <fc_strainrate dimension="24" unit="0" unit_symbol="1/s">0.01</fc_strainrate>
            <sfDataTable name="T=100.0 °C,phi_p=0.01 1/s" type="0" columns="2" rows="17" version="12.1">
                <name>T=100.0 °C,phi_p=0.01 1/s</name>
                <idTag>1</idTag>
                <comment></comment>
                <type>0</type>
                <columns>2</columns>
                <rows>17</rows>
                <columndata title="" type="0" datatype="1" fffunit="-1" unit_symbol="-" usage="1">
                    <name></name>
                </columndata>
                <columndata title="" type="0" datatype="1" fffunit="851971" unit_symbol="MPa" usage="2">
                    <name></name>
                </columndata>
                <row nb="1">0;265.29</row>
                <row nb="2">0.02;368.827</row>
                <row nb="3">0.04;407.287</row>
                <row nb="4">0.06;431.618</row>
                <row nb="5">0.08;449.7576</row>
                <row nb="6">0.1;464.3511</row>
                <row nb="7">0.12;476.6258</row>
                <row nb="8">0.14;487.2566</row>
                <row nb="9">0.16;496.6569</row>
                <row nb="10">0.18;505.099</row>
                <row nb="11">0.2;512.7722</row>
                <row nb="12">0.22;519.8138</row>
                <row nb="13">0.26;532.3901</row>
                <row nb="14">0.3;543.4047</row>
                <row nb="15">0.4;566.2424</row>
                <row nb="16">0.6;600.0692</row>
                <row nb="17">1;645.5774</row>
            </sfDataTable>
        </flow_curve_table>
        <flow_curve_table>
            <fc_temperature dimension="8" unit="1" unit_symbol="°C">200.0</fc_temperature>
            <fc_strainrate dimension="24" unit="0" unit_symbol="1/s">0.01</fc_strainrate>
            <sfDataTable name="T=200.0 °C,phi_p=0.01 1/s" type="0" columns="2" rows="17" version="12.1">
                <name>T=200.0 °C,phi_p=0.01 1/s</name>
                <idTag>2</idTag>
                <comment></comment>
                <type>0</type>
                <columns>2</columns>
                <rows>17</rows>
                <columndata title="" type="0" datatype="1" fffunit="-1" unit_symbol="-" usage="1">
                    <name></name>
                </columndata>
                <columndata title="" type="0" datatype="1" fffunit="851971" unit_symbol="MPa" usage="2">
                    <name></name>
                </columndata>
                <row nb="1">0;223.822</row>
                <row nb="2">0.02;313.3305</row>
                <row nb="3">0.04;346.7233</row>
                <row nb="4">0.06;367.8832</row>
                <row nb="5">0.08;383.675</row>
                <row nb="6">0.1;396.3894</row>
                <row nb="7">0.12;407.0899</row>
                <row nb="8">0.14;416.3622</row>
                <row nb="9">0.16;424.5647</row>
                <row nb="10">0.18;431.9339</row>
                <row nb="11">0.2;438.6341</row>
                <row nb="12">0.22;444.7848</row>
                <row nb="13">0.26;455.774</row>
                <row nb="14">0.3;465.4032</row>
                <row nb="15">0.4;485.3811</row>
                <row nb="16">0.6;515.003</row>
                <row nb="17">1;554.9091</row>
            </sfDataTable>
        </flow_curve_table>
        <flow_curve_table>
            <fc_temperature dimension="8" unit="1" unit_symbol="°C">300.0</fc_temperature>
            <fc_strainrate dimension="24" unit="0" unit_symbol="1/s">0.01</fc_strainrate>
            <sfDataTable name="T=300.0 °C,phi_p=0.01 1/s" type="0" columns="2" rows="17" version="12.1">
                <name>T=300.0 °C,phi_p=0.01 1/s</name>
                <idTag>3</idTag>
                <comment></comment>
                <type>0</type>
                <columns>2</columns>
                <rows>17</rows>
                <columndata title="" type="0" datatype="1" fffunit="-1" unit_symbol="-" usage="1">
                    <name></name>
                </columndata>
                <columndata title="" type="0" datatype="1" fffunit="851971" unit_symbol="MPa" usage="2">
                    <name></name>
                </columndata>
                <row nb="1">0;200.431</row>
                <row nb="2">0.02;281.6978</row>
                <row nb="3">0.04;312.091</row>
                <row nb="4">0.06;331.3682</row>
                <row nb="5">0.08;345.7635</row>
                <row nb="6">0.1;357.3586</row>
                <row nb="7">0.12;367.1205</row>
                <row nb="8">0.14;375.5819</row>
                <row nb="9">0.16;383.0689</row>
                <row nb="10">0.18;389.7968</row>
                <row nb="11">0.2;395.9151</row>
                <row nb="12">0.22;401.5325</row>
                <row nb="13">0.26;411.5712</row>
                <row nb="14">0.3;420.3699</row>
                <row nb="15">0.4;438.6316</row>
                <row nb="16">0.6;465.7249</row>
                <row nb="17">1;502.2533</row>
            </sfDataTable>
        </flow_curve_table>
        <flow_curve_table>
            <fc_temperature dimension="8" unit="1" unit_symbol="°C">400.0</fc_temperature>
            <fc_strainrate dimension="24" unit="0" unit_symbol="1/s">0.01</fc_strainrate>
            <sfDataTable name="T=400.0 °C,phi_p=0.01 1/s" type="0" columns="2" rows="17" version="12.1">
                <name>T=400.0 °C,phi_p=0.01 1/s</name>
                <idTag>4</idTag>
                <comment></comment>
                <type>0</type>
                <columns>2</columns>
                <rows>17</rows>
                <columndata title="" type="0" datatype="1" fffunit="-1" unit_symbol="-" usage="1">
                    <name></name>
                </columndata>
                <columndata title="" type="0" datatype="1" fffunit="851971" unit_symbol="MPa" usage="2">
                    <name></name>
                </columndata>
                <row nb="1">0;185.495</row>
                <row nb="2">0.02;261.3719</row>
                <row nb="3">0.04;289.7945</row>
                <row nb="4">0.06;307.8328</row>
                <row nb="5">0.08;321.308</row>
                <row nb="6">0.1;332.1651</row>
                <row nb="7">0.12;341.3078</row>
                <row nb="8">0.14;349.2339</row>
                <row nb="9">0.16;356.2484</row>
                <row nb="10">0.18;362.5525</row>
                <row nb="11">0.2;368.2862</row>
                <row nb="12">0.22;373.551</row>
                <row nb="13">0.26;382.9611</row>
                <row nb="14">0.3;391.2102</row>
                <row nb="15">0.4;408.3352</row>
                <row nb="16">0.6;433.752</row>
                <row nb="17">1;468.0375</row>
            </sfDataTable>
        </flow_curve_table>
        <flow_curve_table>
            <fc_temperature dimension="8" unit="1" unit_symbol="°C">500.0</fc_temperature>
            <fc_strainrate dimension="24" unit="0" unit_symbol="1/s">0.01</fc_strainrate>
            <sfDataTable name="T=500.0 °C,phi_p=0.01 1/s" type="0" columns="2" rows="17" version="12.1">
                <name>T=500.0 °C,phi_p=0.01 1/s</name>
                <idTag>5</idTag>
                <comment></comment>
                <type>0</type>
                <columns>2</columns>
                <rows>17</rows>
                <columndata title="" type="0" datatype="1" fffunit="-1" unit_symbol="-" usage="1">
                    <name></name>
                </columndata>
                <columndata title="" type="0" datatype="1" fffunit="851971" unit_symbol="MPa" usage="2">
                    <name></name>
                </columndata>
                <row nb="1">0;175.161</row>
                <row nb="2">0.02;249.0132</row>
                <row nb="3">0.04;275.2713</row>
                <row nb="4">0.06;292.1494</row>
                <row nb="5">0.08;304.8234</row>
                <row nb="6">0.1;315.0643</row>
                <row nb="7">0.12;323.704</row>
                <row nb="8">0.14;331.2037</row>
                <row nb="9">0.16;337.8472</row>
                <row nb="10">0.18;343.8224</row>
                <row nb="11">0.2;349.2601</row>
                <row nb="12">0.22;354.2557</row>
                <row nb="13">0.26;363.1897</row>
                <row nb="14">0.3;371.0262</row>
                <row nb="15">0.4;387.3068</row>
                <row nb="16">0.6;411.4936</row>
                <row nb="17">1;444.1517</row>
            </sfDataTable>
        </flow_curve_table>
        <flow_curve_table>
            <fc_temperature dimension="8" unit="1" unit_symbol="°C">600.0</fc_temperature>
            <fc_strainrate dimension="24" unit="0" unit_symbol="1/s">0.01</fc_strainrate>
            <sfDataTable name="T=600.0 °C,phi_p=0.01 1/s" type="0" columns="2" rows="17" version="12.1">
                <name>T=600.0 °C,phi_p=0.01 1/s</name>
                <idTag>6</idTag>
                <comment></comment>
                <type>0</type>
                <columns>2</columns>
                <rows>17</rows>
                <columndata title="" type="0" datatype="1" fffunit="-1" unit_symbol="-" usage="1">
                    <name></name>
                </columndata>
                <columndata title="" type="0" datatype="1" fffunit="851971" unit_symbol="MPa" usage="2">
                    <name></name>
                </columndata>
                <row nb="1">0;167.598</row>
                <row nb="2">0.02;238.5115</row>
                <row nb="3">0.04;263.7989</row>
                <row nb="4">0.06;280.0501</row>
                <row nb="5">0.08;292.2533</row>
                <row nb="6">0.1;302.1141</row>
                <row nb="7">0.12;310.4335</row>
                <row nb="8">0.14;317.6555</row>
                <row nb="9">0.16;324.0534</row>
                <row nb="10">0.18;329.8078</row>
                <row nb="11">0.2;335.0449</row>
                <row nb="12">0.22;339.8564</row>
                <row nb="13">0.26;348.4615</row>
                <row nb="14">0.3;356.0102</row>
                <row nb="15">0.4;371.6942</row>
                <row nb="16">0.6;394.9986</row>
                <row nb="17">1;426.4726</row>
            </sfDataTable>
        </flow_curve_table>
        <flow_curve_table>
            <fc_temperature dimension="8" unit="1" unit_symbol="°C">700.0</fc_temperature>
            <fc_strainrate dimension="24" unit="0" unit_symbol="1/s">0.01</fc_strainrate>
            <sfDataTable name="T=700.0 °C,phi_p=0.01 1/s" type="0" columns="2" rows="17" version="12.1">
                <name>T=700.0 °C,phi_p=0.01 1/s</name>
                <idTag>7</idTag>
                <comment></comment>
                <type>0</type>
                <columns>2</columns>
                <rows>17</rows>
                <columndata title="" type="0" datatype="1" fffunit="-1" unit_symbol="-" usage="1">
                    <name></name>
                </columndata>
                <columndata title="" type="0" datatype="1" fffunit="851971" unit_symbol="MPa" usage="2">
                    <name></name>
                </columndata>
                <row nb="1">0;161.828</row>
                <row nb="2">0.02;190.1631</row>
                <row nb="3">0.04;190.1412</row>
                <row nb="4">0.06;190.0492</row>
                <row nb="5">0.08;189.8105</row>
                <row nb="6">0.1;189.377</row>
                <row nb="7">0.12;188.7536</row>
                <row nb="8">0.14;187.9875</row>
                <row nb="9">0.16;187.1132</row>
                <row nb="10">0.18;186.2</row>
                <row nb="11">0.2;185.2798</row>
                <row nb="12">0.22;184.3739</row>
                <row nb="13">0.26;182.6511</row>
                <row nb="14">0.3;181.075</row>
                <row nb="15">0.4;177.6369</row>
                <row nb="16">0.6;172.5209</row>
                <row nb="17">1;165.9322</row>
            </sfDataTable>
        </flow_curve_table>
        <flow_curve_table>
            <fc_temperature dimension="8" unit="1" unit_symbol="°C">800.0</fc_temperature>
            <fc_strainrate dimension="24" unit="0" unit_symbol="1/s">0.01</fc_strainrate>
            <sfDataTable name="T=800.0 °C,phi_p=0.01 1/s" type="0" columns="2" rows="17" version="12.1">
                <name>T=800.0 °C,phi_p=0.01 1/s</name>
                <idTag>8</idTag>
                <comment></comment>
                <type>0</type>
                <columns>2</columns>
                <rows>17</rows>
                <columndata title="" type="0" datatype="1" fffunit="-1" unit_symbol="-" usage="1">
                    <name></name>
                </columndata>
                <columndata title="" type="0" datatype="1" fffunit="851971" unit_symbol="MPa" usage="2">
                    <name></name>
                </columndata>
                <row nb="1">0;74.86620000000001</row>
                <row nb="2">0.02;74.8656</row>
                <row nb="3">0.04;74.8563</row>
                <row nb="4">0.06;74.8168</row>
                <row nb="5">0.08;74.718</row>
                <row nb="6">0.1;74.53959999999999</row>
                <row nb="7">0.12;74.2912</row>
                <row nb="8">0.14;74.01300000000001</row>
                <row nb="9">0.16;73.6337</row>
                <row nb="10">0.18;73.27330000000001</row>
                <row nb="11">0.2;72.94670000000001</row>
                <row nb="12">0.22;72.5453</row>
                <row nb="13">0.26;71.9041</row>
                <row nb="14">0.3;71.2428</row>
                <row nb="15">0.4;69.9353</row>
                <row nb="16">0.6;67.9178</row>
                <row nb="17">1;65.26179999999999</row>
            </sfDataTable>
        </flow_curve_table>
        <flow_curve_table>
            <fc_temperature dimension="8" unit="1" unit_symbol="°C">900.0</fc_temperature>
            <fc_strainrate dimension="24" unit="0" unit_symbol="1/s">0.01</fc_strainrate>
            <sfDataTable name="T=900.0 °C,phi_p=0.01 1/s" type="0" columns="2" rows="17" version="12.1">
                <name>T=900.0 °C,phi_p=0.01 1/s</name>
                <idTag>9</idTag>
                <comment></comment>
                <type>0</type>
                <columns>2</columns>
                <rows>17</rows>
                <columndata title="" type="0" datatype="1" fffunit="-1" unit_symbol="-" usage="1">
                    <name></name>
                </columndata>
                <columndata title="" type="0" datatype="1" fffunit="851971" unit_symbol="MPa" usage="2">
                    <name></name>
                </columndata>
                <row nb="1">0;33.1524</row>
                <row nb="2">0.02;33.1522</row>
                <row nb="3">0.04;33.1481</row>
                <row nb="4">0.06;33.1314</row>
                <row nb="5">0.08;33.0918</row>
                <row nb="6">0.1;33.0278</row>
                <row nb="7">0.12;32.908</row>
                <row nb="8">0.14;32.7339</row>
                <row nb="9">0.16;32.5468</row>
                <row nb="10">0.18;32.3709</row>
                <row nb="11">0.2;32.2204</row>
                <row nb="12">0.22;32.0998</row>
                <row nb="13">0.26;31.7956</row>
                <row nb="14">0.3;31.443</row>
                <row nb="15">0.4;30.9851</row>
                <row nb="16">0.6;30.0478</row>
                <row nb="17">1;28.9</row>
            </sfDataTable>
        </flow_curve_table>
        <flow_curve_table>
            <fc_temperature dimension="8" unit="1" unit_symbol="°C">1000.0</fc_temperature>
            <fc_strainrate dimension="24" unit="0" unit_symbol="1/s">0.01</fc_strainrate>
            <sfDataTable name="T=1000.0 °C,phi_p=0.01 1/s" type="0" columns="2" rows="17" version="12.1">
                <name>T=1000.0 °C,phi_p=0.01 1/s</name>
                <idTag>10</idTag>
                <comment></comment>
                <type>0</type>
                <columns>2</columns>
                <rows>17</rows>
                <columndata title="" type="0" datatype="1" fffunit="-1" unit_symbol="-" usage="1">
                    <name></name>
                </columndata>
                <columndata title="" type="0" datatype="1" fffunit="851971" unit_symbol="MPa" usage="2">
                    <name></name>
                </columndata>
                <row nb="1">0;16.2254</row>
                <row nb="2">0.02;16.2253</row>
                <row nb="3">0.04;16.2234</row>
                <row nb="4">0.06;16.2155</row>
                <row nb="5">0.08;16.1958</row>
                <row nb="6">0.1;16.1582</row>
                <row nb="7">0.12;16.1058</row>
                <row nb="8">0.14;16.0382</row>
                <row nb="9">0.16;15.9641</row>
                <row nb="10">0.18;15.8876</row>
                <row nb="11">0.2;15.8095</row>
                <row nb="12">0.22;15.7311</row>
                <row nb="13">0.26;15.5851</row>
                <row nb="14">0.3;15.4477</row>
                <row nb="15">0.4;15.1557</row>
                <row nb="16">0.6;14.7204</row>
                <row nb="17">1;14.1549</row>
            </sfDataTable>
        </flow_curve_table>
        <flow_curve_table>
            <fc_temperature dimension="8" unit="1" unit_symbol="°C">1100.0</fc_temperature>
            <fc_strainrate dimension="24" unit="0" unit_symbol="1/s">0.01</fc_strainrate>
            <sfDataTable name="T=1100.0 °C,phi_p=0.01 1/s" type="0" columns="2" rows="17" version="12.1">
                <name>T=1100.0 °C,phi_p=0.01 1/s</name>
                <idTag>11</idTag>
                <comment></comment>
                <type>0</type>
                <columns>2</columns>
                <rows>17</rows>
                <columndata title="" type="0" datatype="1" fffunit="-1" unit_symbol="-" usage="1">
                    <name></name>
                </columndata>
                <columndata title="" type="0" datatype="1" fffunit="851971" unit_symbol="MPa" usage="2">
                    <name></name>
                </columndata>
                <row nb="1">0;8.5604</row>
                <row nb="2">0.02;8.5604</row>
                <row nb="3">0.04;8.5593</row>
                <row nb="4">0.06;8.5549</row>
                <row nb="5">0.08;8.5441</row>
                <row nb="6">0.1;8.524800000000001</row>
                <row nb="7">0.12;8.4984</row>
                <row nb="8">0.14;8.4604</row>
                <row nb="9">0.16;8.4217</row>
                <row nb="10">0.18;8.3813</row>
                <row nb="11">0.2;8.337899999999999</row>
                <row nb="12">0.22;8.301500000000001</row>
                <row nb="13">0.26;8.2204</row>
                <row nb="14">0.3;8.147</row>
                <row nb="15">0.4;7.9985</row>
                <row nb="16">0.6;7.7626</row>
                <row nb="17">1;7.4646</row>
            </sfDataTable>
        </flow_curve_table>
        <flow_curve_table>
            <fc_temperature dimension="8" unit="1" unit_symbol="°C">1200.0</fc_temperature>
            <fc_strainrate dimension="24" unit="0" unit_symbol="1/s">0.01</fc_strainrate>
            <sfDataTable name="T=1200.0 °C,phi_p=0.01 1/s" type="0" columns="2" rows="17" version="12.1">
                <name>T=1200.0 °C,phi_p=0.01 1/s</name>
                <idTag>12</idTag>
                <comment></comment>
                <type>0</type>
                <columns>2</columns>
                <rows>17</rows>
                <columndata title="" type="0" datatype="1" fffunit="-1" unit_symbol="-" usage="1">
                    <name></name>
                </columndata>
                <columndata title="" type="0" datatype="1" fffunit="851971" unit_symbol="MPa" usage="2">
                    <name></name>
                </columndata>
                <row nb="1">0;4.7807</row>
                <row nb="2">0.02;4.7806</row>
                <row nb="3">0.04;4.78</row>
                <row nb="4">0.06;4.7774</row>
                <row nb="5">0.08;4.7707</row>
                <row nb="6">0.1;4.7586</row>
                <row nb="7">0.12;4.7417</row>
                <row nb="8">0.14;4.7224</row>
                <row nb="9">0.16;4.7041</row>
                <row nb="10">0.18;4.6782</row>
                <row nb="11">0.2;4.6516</row>
                <row nb="12">0.22;4.6289</row>
                <row nb="13">0.26;4.5913</row>
                <row nb="14">0.3;4.5435</row>
                <row nb="15">0.4;4.4576</row>
                <row nb="16">0.6;4.328</row>
                <row nb="17">1;4.1618</row>
            </sfDataTable>
        </flow_curve_table>
        <flow_curve_table>
            <fc_temperature dimension="8" unit="1" unit_symbol="°C">1300.0</fc_temperature>
            <fc_strainrate dimension="24" unit="0" unit_symbol="1/s">0.01</fc_strainrate>
            <sfDataTable name="T=1300.0 °C,phi_p=0.01 1/s" type="0" columns="2" rows="17" version="12.1">
                <name>T=1300.0 °C,phi_p=0.01 1/s</name>
                <idTag>13</idTag>
                <comment></comment>
                <type>0</type>
                <columns>2</columns>
                <rows>17</rows>
                <columndata title="" type="0" datatype="1" fffunit="-1" unit_symbol="-" usage="1">
                    <name></name>
                </columndata>
                <columndata title="" type="0" datatype="1" fffunit="851971" unit_symbol="MPa" usage="2">
                    <name></name>
                </columndata>
                <row nb="1">0;2.7862</row>
                <row nb="2">0.02;2.7862</row>
                <row nb="3">0.04;2.7858</row>
                <row nb="4">0.06;2.7841</row>
                <row nb="5">0.08;2.7797</row>
                <row nb="6">0.1;2.7716</row>
                <row nb="7">0.12;2.7598</row>
                <row nb="8">0.14;2.7457</row>
                <row nb="9">0.16;2.7316</row>
                <row nb="10">0.18;2.7193</row>
                <row nb="11">0.2;2.7093</row>
                <row nb="12">0.22;2.7017</row>
                <row nb="13">0.26;2.6663</row>
                <row nb="14">0.3;2.6377</row>
                <row nb="15">0.4;2.602</row>
                <row nb="16">0.6;2.5147</row>
                <row nb="17">1;2.4157</row>
            </sfDataTable>
        </flow_curve_table>
        <flow_curve_table>
            <fc_temperature dimension="8" unit="1" unit_symbol="°C">1400.0</fc_temperature>
            <fc_strainrate dimension="24" unit="0" unit_symbol="1/s">0.01</fc_strainrate>
            <sfDataTable name="T=1400.0 °C,phi_p=0.01 1/s" type="0" columns="2" rows="17" version="12.1">
                <name>T=1400.0 °C,phi_p=0.01 1/s</name>
                <idTag>14</idTag>
                <comment></comment>
                <type>0</type>
                <columns>2</columns>
                <rows>17</rows>
                <columndata title="" type="0" datatype="1" fffunit="-1" unit_symbol="-" usage="1">
                    <name></name>
                </columndata>
                <columndata title="" type="0" datatype="1" fffunit="851971" unit_symbol="MPa" usage="2">
                    <name></name>
                </columndata>
                <row nb="1">0;1.6779</row>
                <row nb="2">0.02;1.6779</row>
                <row nb="3">0.04;1.6776</row>
                <row nb="4">0.06;1.6763</row>
                <row nb="5">0.08;1.673</row>
                <row nb="6">0.1;1.6668</row>
                <row nb="7">0.12;1.6577</row>
                <row nb="8">0.14;1.6469</row>
                <row nb="9">0.16;1.636</row>
                <row nb="10">0.18;1.6263</row>
                <row nb="11">0.2;1.6185</row>
                <row nb="12">0.22;1.6125</row>
                <row nb="13">0.26;1.6047</row>
                <row nb="14">0.3;1.6005</row>
                <row nb="15">0.4;1.545</row>
                <row nb="16">0.6;1.507</row>
                <row nb="17">1;1.4351</row>
            </sfDataTable>
        </flow_curve_table>
    </flow_curves_table_approach>
    <phase_transformation>
        <grain_size dimension="34" unit="0" unit_symbol="µm">10.01580649028048</grain_size>
        <austenitisation_temp dimension="8" unit="1" unit_symbol="°C">1300.0</austenitisation_temp>
        <cooling_rate dimension="32" unit="0" unit_symbol="K/s">15.32711648238049</cooling_rate>
        <a3 dimension="8" unit="1" unit_symbol="°C">712.29</a3>
        <a1 dimension="8" unit="1" unit_symbol="°C">808.36</a1>
        <phase_transformation_austenit>
            <youngs_modulus_table id="1">
                <sfDataTable name="Young's modulus" type="0" columns="2" rows="8" version="12.1">
                    <name>Young's modulus</name>
                    <idTag>42##Austenite</idTag>
                    <comment></comment>
                    <type>0</type>
                    <columns>2</columns>
                    <rows>8</rows>
                    <columndata title="Temperature" type="0" datatype="1" fffunit="524289" unit_symbol="°C" usage="1">
                        <name>Temperature</name>
                    </columndata>
                    <columndata title="Stress" type="0" datatype="1" fffunit="851971" unit_symbol="MPa" usage="2">
                        <name>Young's modulus</name>
                    </columndata>
                    <row nb="1">25;198328.8339</row>
                    <row nb="2">200;182779.7227</row>
                    <row nb="3">400;164520.8168</row>
                    <row nb="4">600;145740.8516</row>
                    <row nb="5">800;126439.8271</row>
                    <row nb="6">1000;106617.7436</row>
                    <row nb="7">1200;86274.60129999999</row>
                    <row nb="8">1300;75907.63312999999</row>
                </sfDataTable>
            </youngs_modulus_table>
            <transverse_contraction_table id="2">
                <sfDataTable name="Poisson's ratio" type="0" columns="2" rows="2" version="12.1">
                    <name>Poisson's ratio</name>
                    <idTag>45##Austenite</idTag>
                    <comment></comment>
                    <type>0</type>
                    <columns>2</columns>
                    <rows>2</rows>
                    <columndata title="Temperature" type="0" datatype="1" fffunit="524289" unit_symbol="°C" usage="1">
                        <name>Temperature</name>
                    </columndata>
                    <columndata title="Size of dimension one" type="0" datatype="1" fffunit="-1" unit_symbol="-" usage="2">
                        <name>Poisson's ratio</name>
                    </columndata>
                    <row nb="1">25;0.2935833834</row>
                    <row nb="2">1300;0.3687608251</row>
                </sfDataTable>
            </transverse_contraction_table>
            <thermal_expansion_table id="5">
                <sfDataTable name="Thermal expansion coeff." type="0" columns="2" rows="5" version="12.1">
                    <name>Thermal expansion coeff.</name>
                    <idTag>48##Austenite</idTag>
                    <comment></comment>
                    <type>0</type>
                    <columns>2</columns>
                    <rows>5</rows>
                    <columndata title="Temperature" type="0" datatype="1" fffunit="524289" unit_symbol="°C" usage="1">
                        <name>Temperature</name>
                    </columndata>
                    <columndata title="Thermal expansion" type="0" datatype="1" fffunit="983040" unit_symbol="1/K" usage="2">
                        <name>Thermal expansion</name>
                    </columndata>
                    <row nb="1">-100;0</row>
                    <row nb="2">-40;2.5e-5</row>
                    <row nb="3">20;2.506592490927423e-5</row>
                    <row nb="4">1427;2.537248114797892e-5</row>
                    <row nb="5">1507;0</row>
                </sfDataTable>
            </thermal_expansion_table>
            <density_table id="4">
                <sfDataTable name="Density" type="0" columns="2" rows="27" version="12.1">
                    <name>Density</name>
                    <idTag>51##Austenite</idTag>
                    <comment></comment>
                    <type>0</type>
                    <columns>2</columns>
                    <rows>27</rows>
                    <columndata title="Temperature" type="0" datatype="1" fffunit="524289" unit_symbol="°C" usage="1">
                        <name>Temperature</name>
                    </columndata>
                    <columndata title="Density" type="0" datatype="1" fffunit="720902" unit_symbol="g/cm³" usage="2">
                        <name>Density</name>
                    </columndata>
                    <row nb="1">25;8.078620923000001</row>
                    <row nb="2">50;8.063462063999999</row>
                    <row nb="3">100;8.033310108</row>
                    <row nb="4">150;8.003374712999999</row>
                    <row nb="5">200;7.97365064</row>
                    <row nb="6">250;7.944132767</row>
                    <row nb="7">300;7.914816091</row>
                    <row nb="8">350;7.885695721</row>
                    <row nb="9">400;7.856766877</row>
                    <row nb="10">450;7.828024889</row>
                    <row nb="11">500;7.799465191</row>
                    <row nb="12">550;7.771083321</row>
                    <row nb="13">600;7.742874891</row>
                    <row nb="14">650;7.714835667</row>
                    <row nb="15">700;7.686961483</row>
                    <row nb="16">750;7.659248261</row>
                    <row nb="17">800;7.631692038</row>
                    <row nb="18">850;7.604288918</row>
                    <row nb="19">900;7.577035101</row>
                    <row nb="20">950;7.549926875</row>
                    <row nb="21">1000;7.52296061</row>
                    <row nb="22">1050;7.496132763</row>
                    <row nb="23">1100;7.469439868</row>
                    <row nb="24">1150;7.442878542</row>
                    <row nb="25">1200;7.41644548</row>
                    <row nb="26">1250;7.390137449</row>
                    <row nb="27">1300;7.363951298</row>
                </sfDataTable>
            </density_table>
            <molar_volume id="3">
                <sfDataTable name="Molar volume" type="0" columns="2" rows="27" version="12.1">
                    <name>Molar volume</name>
                    <idTag>196##Austenite</idTag>
                    <comment></comment>
                    <type>0</type>
                    <columns>2</columns>
                    <rows>27</rows>
                    <columndata title="Temperature" type="0" datatype="1" fffunit="524289" unit_symbol="°C" usage="1">
                        <name>Temperature</name>
                    </columndata>
                    <columndata title="Volume" type="0" datatype="1" fffunit="655361" unit_symbol="cm³" usage="2">
                        <name>Volume</name>
                    </columndata>
                    <row nb="1">25;6.829612736e-6</row>
                    <row nb="2">50;6.842452028e-6</row>
                    <row nb="3">100;6.868134257e-6</row>
                    <row nb="4">150;6.893823459e-6</row>
                    <row nb="5">200;6.919522166e-6</row>
                    <row nb="6">250;6.945232912e-6</row>
                    <row nb="7">300;6.970958227e-6</row>
                    <row nb="8">350;6.996700647e-6</row>
                    <row nb="9">400;7.022462701e-6</row>
                    <row nb="10">450;7.048246924e-6</row>
                    <row nb="11">500;7.074055848e-6</row>
                    <row nb="12">550;7.099892006e-6</row>
                    <row nb="13">600;7.125757955e-6</row>
                    <row nb="14">650;7.151656194e-6</row>
                    <row nb="15">700;7.177589265e-6</row>
                    <row nb="16">750;7.203559722e-6</row>
                    <row nb="17">800;7.229570054e-6</row>
                    <row nb="18">850;7.255622822e-6</row>
                    <row nb="19">900;7.281720544e-6</row>
                    <row nb="20">950;7.30786576e-6</row>
                    <row nb="21">1000;7.334061012e-6</row>
                    <row nb="22">1050;7.360308815e-6</row>
                    <row nb="23">1100;7.386611711e-6</row>
                    <row nb="24">1150;7.412972238e-6</row>
                    <row nb="25">1200;7.439392914e-6</row>
                    <row nb="26">1250;7.465876282e-6</row>
                    <row nb="27">1300;7.492424879e-6</row>
                </sfDataTable>
            </molar_volume>
            <thermal_conductivity_table id="6">
                <sfDataTable name="Thermal conductivity" type="0" columns="2" rows="8" version="12.1">
                    <name>Thermal conductivity</name>
                    <idTag>54##Austenite</idTag>
                    <comment></comment>
                    <type>0</type>
                    <columns>2</columns>
                    <rows>8</rows>
                    <columndata title="Temperature" type="0" datatype="1" fffunit="524289" unit_symbol="°C" usage="1">
                        <name>Temperature</name>
                    </columndata>
                    <columndata title="Thermal conductivity" type="0" datatype="1" fffunit="917505" unit_symbol="W/(m·K)" usage="2">
                        <name>Thermal conductivity</name>
                    </columndata>
                    <row nb="1">25;17.11850147</row>
                    <row nb="2">200;19.23787684</row>
                    <row nb="3">400;21.65186845</row>
                    <row nb="4">600;24.06289912</row>
                    <row nb="5">800;26.47263113</row>
                    <row nb="6">1000;28.88168238</row>
                    <row nb="7">1200;31.29033515</row>
                    <row nb="8">1300;32.4945611</row>
                </sfDataTable>
            </thermal_conductivity_table>
            <specific_heat_capacity_table id="7">
                <sfDataTable name="Specific heat capacity" type="0" columns="2" rows="8" version="12.1">
                    <name>Specific heat capacity</name>
                    <idTag>57##Austenite</idTag>
                    <comment></comment>
                    <type>0</type>
                    <columns>2</columns>
                    <rows>8</rows>
                    <columndata title="Temperature" type="0" datatype="1" fffunit="524289" unit_symbol="°C" usage="1">
                        <name>Temperature</name>
                    </columndata>
                    <columndata title="Specific heat capacity" type="0" datatype="1" fffunit="1179648" unit_symbol="kJ/(kg·K)" usage="2">
                        <name>Heat capacity</name>
                    </columndata>
                    <row nb="1">25;0.45323</row>
                    <row nb="2">200;0.49761</row>
                    <row nb="3">400;0.53324</row>
                    <row nb="4">600;0.56524</row>
                    <row nb="5">800;0.59627</row>
                    <row nb="6">1000;0.6271600000000001</row>
                    <row nb="7">1200;0.65826</row>
                    <row nb="8">1300;0.67413</row>
                </sfDataTable>
            </specific_heat_capacity_table>
            <electrical_resisitivity_table id="0">
                <sfDataTable name="Electrical resistivity" type="0" columns="2" rows="53" version="12.1">
                    <name>Electrical resistivity</name>
                    <idTag>60##Austenite</idTag>
                    <comment></comment>
                    <type>0</type>
                    <columns>2</columns>
                    <rows>53</rows>
                    <columndata title="Temperature" type="0" datatype="1" fffunit="524289" unit_symbol="°C" usage="1">
                        <name>Temperature</name>
                    </columndata>
                    <columndata title="Electrical resistivity" type="0" datatype="1" fffunit="2818048" unit_symbol="Ω·m" usage="2">
                        <name>Electrical resistivity</name>
                    </columndata>
                    <row nb="1">20;2.33506494e-7</row>
                    <row nb="2">38.09523810000002;2.43506494e-7</row>
                    <row nb="3">51.42857142999998;2.5e-7</row>
                    <row nb="4">68.57142856999997;2.5974026e-7</row>
                    <row nb="5">93.33333333000002;2.75974026e-7</row>
                    <row nb="6">121.9047619;2.92207792e-7</row>
                    <row nb="7">163.8095238;3.18181818e-7</row>
                    <row nb="8">186.6666667;3.37662338e-7</row>
                    <row nb="9">205.7142857;3.50649351e-7</row>
                    <row nb="10">241.9047619;3.76623377e-7</row>
                    <row nb="11">266.6666667000001;3.96103896e-7</row>
                    <row nb="12">300.9523809999999;4.22077922e-7</row>
                    <row nb="13">323.8095238;4.41558442e-7</row>
                    <row nb="14">340.9523809999999;4.57792208e-7</row>
                    <row nb="15">371.4285714;4.83766234e-7</row>
                    <row nb="16">384.7619048;4.96753247e-7</row>
                    <row nb="17">403.8095238;5.16233766e-7</row>
                    <row nb="18">422.8571429;5.357142860000001e-7</row>
                    <row nb="19">447.6190476;5.61688312e-7</row>
                    <row nb="20">464.7619048;5.779220779999999e-7</row>
                    <row nb="21">493.3333332999999;6.07142857e-7</row>
                    <row nb="22">516.1904762;6.331168830000001e-7</row>
                    <row nb="23">540.9523809999999;6.59090909e-7</row>
                    <row nb="24">563.8095238;6.915584420000001e-7</row>
                    <row nb="25">584.7619048;7.207792210000001e-7</row>
                    <row nb="26">615.2380952;7.597402599999999e-7</row>
                    <row nb="27">636.1904762;7.88961039e-7</row>
                    <row nb="28">647.6190476;8.051948049999999e-7</row>
                    <row nb="29">672.3809524;8.40909091e-7</row>
                    <row nb="30">681.9047619;8.571428570000001e-7</row>
                    <row nb="31">699.0476190000001;8.86363636e-7</row>
                    <row nb="32">714.2857143;9.09090909e-7</row>
                    <row nb="33">735.2380952;9.48051948e-7</row>
                    <row nb="34">740.9523809999999;9.577922080000001e-7</row>
                    <row nb="35">744.7619048;9.70779221e-7</row>
                    <row nb="36">748.5714286;9.837662339999999e-7</row>
                    <row nb="37">752.3809524;9.902597400000001e-7</row>
                    <row nb="38">758.0952380999998;1.00974026e-6</row>
                    <row nb="39">763.8095238;1.022727273e-6</row>
                    <row nb="40">775.2380952;1.042207792e-6</row>
                    <row nb="41">786.6666667000001;1.055194805e-6</row>
                    <row nb="42">801.9047618999999;1.064935065e-6</row>
                    <row nb="43">817.1428571;1.074675325e-6</row>
                    <row nb="44">832.3809524;1.081168831e-6</row>
                    <row nb="45">847.6190476;1.084415584e-6</row>
                    <row nb="46">870.4761905000001;1.094155844e-6</row>
                    <row nb="47">895.2380952;1.103896104e-6</row>
                    <row nb="48">920.0000000000001;1.113636364e-6</row>
                    <row nb="49">940.9523809999999;1.12012987e-6</row>
                    <row nb="50">960.0000000000001;1.126623377e-6</row>
                    <row nb="51">980.9523809999999;1.133116883e-6</row>
                    <row nb="52">1000;1.13961039e-6</row>
                    <row nb="53">1022.857143;1.146103896e-6</row>
                </sfDataTable>
            </electrical_resisitivity_table>
            <flow_curves_used_approach>0</flow_curves_used_approach>
            <flow_curves_table_approach>
                <usePeakTemperatures>false</usePeakTemperatures>
                <temperatures count="14">
                    <temperature dimension="8" unit="1" unit_symbol="°C">25.0</temperature>
                    <temperature dimension="8" unit="1" unit_symbol="°C">100.0</temperature>
                    <temperature dimension="8" unit="1" unit_symbol="°C">200.0</temperature>
                    <temperature dimension="8" unit="1" unit_symbol="°C">300.0</temperature>
                    <temperature dimension="8" unit="1" unit_symbol="°C">400.0</temperature>
                    <temperature dimension="8" unit="1" unit_symbol="°C">500.0</temperature>
                    <temperature dimension="8" unit="1" unit_symbol="°C">600.0</temperature>
                    <temperature dimension="8" unit="1" unit_symbol="°C">700.0</temperature>
                    <temperature dimension="8" unit="1" unit_symbol="°C">800.0</temperature>
                    <temperature dimension="8" unit="1" unit_symbol="°C">900.0</temperature>
                    <temperature dimension="8" unit="1" unit_symbol="°C">1000.0</temperature>
                    <temperature dimension="8" unit="1" unit_symbol="°C">1100.0</temperature>
                    <temperature dimension="8" unit="1" unit_symbol="°C">1200.0</temperature>
                    <temperature dimension="8" unit="1" unit_symbol="°C">1300.0</temperature>
                </temperatures>
                <strain_rates count="1">
                    <strain_rate dimension="24" unit="0" unit_symbol="1/s">0.01</strain_rate>
                </strain_rates>
                <flow_curve_table>
                    <fc_temperature dimension="8" unit="1" unit_symbol="°C">25.0</fc_temperature>
                    <fc_strainrate dimension="24" unit="0" unit_symbol="1/s">0.01</fc_strainrate>
                    <sfDataTable name="T=25.0 °C,phi_p=0.01 1/s" type="0" columns="2" rows="17" version="12.1">
                        <name>T=25.0 °C,phi_p=0.01 1/s</name>
                        <idTag>0</idTag>
                        <comment></comment>
                        <type>0</type>
                        <columns>2</columns>
                        <rows>17</rows>
                        <columndata title="" type="0" datatype="1" fffunit="-1" unit_symbol="-" usage="1">
                            <name></name>
                        </columndata>
                        <columndata title="" type="0" datatype="1" fffunit="851971" unit_symbol="MPa" usage="2">
                            <name></name>
                        </columndata>
                        <row nb="1">0;282.663</row>
                        <row nb="2">0.02;461.552</row>
                        <row nb="3">0.04;534.9651</row>
                        <row nb="4">0.06;583.2092</row>
                        <row nb="5">0.08;620.0551</row>
                        <row nb="6">0.1;650.2307</row>
                        <row nb="7">0.12;675.9728</row>
                        <row nb="8">0.14;698.5309999999999</row>
                        <row nb="9">0.16;718.6793</row>
                        <row nb="10">0.18;736.9332000000001</row>
                        <row nb="11">0.2;753.6545</row>
                        <row nb="12">0.22;769.1073</row>
                        <row nb="13">0.26;796.9603</row>
                        <row nb="14">0.3;821.6204</row>
                        <row nb="15">0.4;873.5286</row>
                        <row nb="16">0.6;952.3049999999999</row>
                        <row nb="17">1;1061.7423</row>
                    </sfDataTable>
                </flow_curve_table>
                <flow_curve_table>
                    <fc_temperature dimension="8" unit="1" unit_symbol="°C">100.0</fc_temperature>
                    <fc_strainrate dimension="24" unit="0" unit_symbol="1/s">0.01</fc_strainrate>
                    <sfDataTable name="T=100.0 °C,phi_p=0.01 1/s" type="0" columns="2" rows="17" version="12.1">
                        <name>T=100.0 °C,phi_p=0.01 1/s</name>
                        <idTag>1</idTag>
                        <comment></comment>
                        <type>0</type>
                        <columns>2</columns>
                        <rows>17</rows>
                        <columndata title="" type="0" datatype="1" fffunit="-1" unit_symbol="-" usage="1">
                            <name></name>
                        </columndata>
                        <columndata title="" type="0" datatype="1" fffunit="851971" unit_symbol="MPa" usage="2">
                            <name></name>
                        </columndata>
                        <row nb="1">0;231.847</row>
                        <row nb="2">0.02;399.5421</row>
                        <row nb="3">0.04;470.6676</row>
                        <row nb="4">0.06;518.0068</row>
                        <row nb="5">0.08;554.4547</row>
                        <row nb="6">0.1;584.4829999999999</row>
                        <row nb="7">0.12;610.2211</row>
                        <row nb="8">0.14;632.8646</row>
                        <row nb="9">0.16;653.1574000000001</row>
                        <row nb="10">0.18;671.5964</row>
                        <row nb="11">0.2;688.5312</row>
                        <row nb="12">0.22;704.2182</row>
                        <row nb="13">0.26;732.5806</row>
                        <row nb="14">0.3;757.7828</row>
                        <row nb="15">0.4;811.1019</row>
                        <row nb="16">0.6;892.6815</row>
                        <row nb="17">1;1007.2399</row>
                    </sfDataTable>
                </flow_curve_table>
                <flow_curve_table>
                    <fc_temperature dimension="8" unit="1" unit_symbol="°C">200.0</fc_temperature>
                    <fc_strainrate dimension="24" unit="0" unit_symbol="1/s">0.01</fc_strainrate>
                    <sfDataTable name="T=200.0 °C,phi_p=0.01 1/s" type="0" columns="2" rows="17" version="12.1">
                        <name>T=200.0 °C,phi_p=0.01 1/s</name>
                        <idTag>2</idTag>
                        <comment></comment>
                        <type>0</type>
                        <columns>2</columns>
                        <rows>17</rows>
                        <columndata title="" type="0" datatype="1" fffunit="-1" unit_symbol="-" usage="1">
                            <name></name>
                        </columndata>
                        <columndata title="" type="0" datatype="1" fffunit="851971" unit_symbol="MPa" usage="2">
                            <name></name>
                        </columndata>
                        <row nb="1">0;196.532</row>
                        <row nb="2">0.02;353.0811</row>
                        <row nb="3">0.04;421.1812</row>
                        <row nb="4">0.06;466.9537</row>
                        <row nb="5">0.08;502.416</row>
                        <row nb="6">0.1;531.7669</row>
                        <row nb="7">0.12;557.0168</row>
                        <row nb="8">0.14;579.2984</row>
                        <row nb="9">0.16;599.3188</row>
                        <row nb="10">0.18;617.5515</row>
                        <row nb="11">0.2;634.3308</row>
                        <row nb="12">0.22;649.9019</row>
                        <row nb="13">0.26;678.1217</row>
                        <row nb="14">0.3;703.2677</row>
                        <row nb="15">0.4;756.6765</row>
                        <row nb="16">0.6;838.9095</row>
                        <row nb="17">1;955.3502</row>
                    </sfDataTable>
                </flow_curve_table>
                <flow_curve_table>
                    <fc_temperature dimension="8" unit="1" unit_symbol="°C">300.0</fc_temperature>
                    <fc_strainrate dimension="24" unit="0" unit_symbol="1/s">0.01</fc_strainrate>
                    <sfDataTable name="T=300.0 °C,phi_p=0.01 1/s" type="0" columns="2" rows="17" version="12.1">
                        <name>T=300.0 °C,phi_p=0.01 1/s</name>
                        <idTag>3</idTag>
                        <comment></comment>
                        <type>0</type>
                        <columns>2</columns>
                        <rows>17</rows>
                        <columndata title="" type="0" datatype="1" fffunit="-1" unit_symbol="-" usage="1">
                            <name></name>
                        </columndata>
                        <columndata title="" type="0" datatype="1" fffunit="851971" unit_symbol="MPa" usage="2">
                            <name></name>
                        </columndata>
                        <row nb="1">0;176.612</row>
                        <row nb="2">0.02;323.5009</row>
                        <row nb="3">0.04;388.1529</row>
                        <row nb="4">0.06;431.8066</row>
                        <row nb="5">0.08;465.7256</row>
                        <row nb="6">0.1;493.8595</row>
                        <row nb="7">0.12;518.1036</row>
                        <row nb="8">0.14;539.5279</row>
                        <row nb="9">0.16;558.8013</row>
                        <row nb="10">0.18;576.3723</row>
                        <row nb="11">0.2;592.5578</row>
                        <row nb="12">0.22;607.5906</row>
                        <row nb="13">0.26;634.8649</row>
                        <row nb="14">0.3;659.2001</row>
                        <row nb="15">0.4;710.9811</row>
                        <row nb="16">0.6;790.9419</row>
                        <row nb="17">1;904.6043</row>
                    </sfDataTable>
                </flow_curve_table>
                <flow_curve_table>
                    <fc_temperature dimension="8" unit="1" unit_symbol="°C">400.0</fc_temperature>
                    <fc_strainrate dimension="24" unit="0" unit_symbol="1/s">0.01</fc_strainrate>
                    <sfDataTable name="T=400.0 °C,phi_p=0.01 1/s" type="0" columns="2" rows="17" version="12.1">
                        <name>T=400.0 °C,phi_p=0.01 1/s</name>
                        <idTag>4</idTag>
                        <comment></comment>
                        <type>0</type>
                        <columns>2</columns>
                        <rows>17</rows>
                        <columndata title="" type="0" datatype="1" fffunit="-1" unit_symbol="-" usage="1">
                            <name></name>
                        </columndata>
                        <columndata title="" type="0" datatype="1" fffunit="851971" unit_symbol="MPa" usage="2">
                            <name></name>
                        </columndata>
                        <row nb="1">0;163.893</row>
                        <row nb="2">0.02;300.8948</row>
                        <row nb="3">0.04;361.279</row>
                        <row nb="4">0.06;402.0732</row>
                        <row nb="5">0.08;433.7812</row>
                        <row nb="6">0.1;460.088</row>
                        <row nb="7">0.12;482.7621</row>
                        <row nb="8">0.14;502.8025</row>
                        <row nb="9">0.16;520.8334</row>
                        <row nb="10">0.18;537.2738000000001</row>
                        <row nb="11">0.2;552.4194</row>
                        <row nb="12">0.22;566.4878</row>
                        <row nb="13">0.26;592.0159</row>
                        <row nb="14">0.3;614.7965</row>
                        <row nb="15">0.4;663.2800999999999</row>
                        <row nb="16">0.6;738.1752</row>
                        <row nb="17">1;844.6857</row>
                    </sfDataTable>
                </flow_curve_table>
                <flow_curve_table>
                    <fc_temperature dimension="8" unit="1" unit_symbol="°C">500.0</fc_temperature>
                    <fc_strainrate dimension="24" unit="0" unit_symbol="1/s">0.01</fc_strainrate>
                    <sfDataTable name="T=500.0 °C,phi_p=0.01 1/s" type="0" columns="2" rows="17" version="12.1">
                        <name>T=500.0 °C,phi_p=0.01 1/s</name>
                        <idTag>5</idTag>
                        <comment></comment>
                        <type>0</type>
                        <columns>2</columns>
                        <rows>17</rows>
                        <columndata title="" type="0" datatype="1" fffunit="-1" unit_symbol="-" usage="1">
                            <name></name>
                        </columndata>
                        <columndata title="" type="0" datatype="1" fffunit="851971" unit_symbol="MPa" usage="2">
                            <name></name>
                        </columndata>
                        <row nb="1">0;155.093</row>
                        <row nb="2">0.02;284.758</row>
                        <row nb="3">0.04;338.4991</row>
                        <row nb="4">0.06;375.097</row>
                        <row nb="5">0.08;403.6149</row>
                        <row nb="6">0.1;427.2987</row>
                        <row nb="7">0.12;447.7204</row>
                        <row nb="8">0.14;465.7722</row>
                        <row nb="9">0.16;482.0137</row>
                        <row nb="10">0.18;496.821</row>
                        <row nb="11">0.2;510.4601</row>
                        <row nb="12">0.22;523.1269</row>
                        <row nb="13">0.26;546.1052</row>
                        <row nb="14">0.3;566.6022</row>
                        <row nb="15">0.4;610.1965</row>
                        <row nb="16">0.6;677.453</row>
                        <row nb="17">1;716.7198</row>
                    </sfDataTable>
                </flow_curve_table>
                <flow_curve_table>
                    <fc_temperature dimension="8" unit="1" unit_symbol="°C">600.0</fc_temperature>
                    <fc_strainrate dimension="24" unit="0" unit_symbol="1/s">0.01</fc_strainrate>
                    <sfDataTable name="T=600.0 °C,phi_p=0.01 1/s" type="0" columns="2" rows="17" version="12.1">
                        <name>T=600.0 °C,phi_p=0.01 1/s</name>
                        <idTag>6</idTag>
                        <comment></comment>
                        <type>0</type>
                        <columns>2</columns>
                        <rows>17</rows>
                        <columndata title="" type="0" datatype="1" fffunit="-1" unit_symbol="-" usage="1">
                            <name></name>
                        </columndata>
                        <columndata title="" type="0" datatype="1" fffunit="851971" unit_symbol="MPa" usage="2">
                            <name></name>
                        </columndata>
                        <row nb="1">0;89.5192</row>
                        <row nb="2">0.02;169.693</row>
                        <row nb="3">0.04;202.7915</row>
                        <row nb="4">0.06;225.5591</row>
                        <row nb="5">0.08;243.3982</row>
                        <row nb="6">0.1;258.2694</row>
                        <row nb="7">0.12;271.1292</row>
                        <row nb="8">0.14;282.5229</row>
                        <row nb="9">0.16;292.7937</row>
                        <row nb="10">0.18;302.173</row>
                        <row nb="11">0.2;310.8249</row>
                        <row nb="12">0.22;318.8703</row>
                        <row nb="13">0.26;333.4895</row>
                        <row nb="14">0.3;346.5555</row>
                        <row nb="15">0.4;374.4194</row>
                        <row nb="16">0.6;417.5894</row>
                        <row nb="17">1;406.5672</row>
                    </sfDataTable>
                </flow_curve_table>
                <flow_curve_table>
                    <fc_temperature dimension="8" unit="1" unit_symbol="°C">700.0</fc_temperature>
                    <fc_strainrate dimension="24" unit="0" unit_symbol="1/s">0.01</fc_strainrate>
                    <sfDataTable name="T=700.0 °C,phi_p=0.01 1/s" type="0" columns="2" rows="17" version="12.1">
                        <name>T=700.0 °C,phi_p=0.01 1/s</name>
                        <idTag>7</idTag>
                        <comment></comment>
                        <type>0</type>
                        <columns>2</columns>
                        <rows>17</rows>
                        <columndata title="" type="0" datatype="1" fffunit="-1" unit_symbol="-" usage="1">
                            <name></name>
                        </columndata>
                        <columndata title="" type="0" datatype="1" fffunit="851971" unit_symbol="MPa" usage="2">
                            <name></name>
                        </columndata>
                        <row nb="1">0;85.5093</row>
                        <row nb="2">0.02;154.9119</row>
                        <row nb="3">0.04;182.8277</row>
                        <row nb="4">0.06;201.8377</row>
                        <row nb="5">0.08;216.6366</row>
                        <row nb="6">0.1;228.9144</row>
                        <row nb="7">0.12;239.491</row>
                        <row nb="8">0.14;248.832</row>
                        <row nb="9">0.16;257.2296</row>
                        <row nb="10">0.18;264.8801</row>
                        <row nb="11">0.2;266.9926</row>
                        <row nb="12">0.22;266.3519</row>
                        <row nb="13">0.26;264.8446</row>
                        <row nb="14">0.3;263.1285</row>
                        <row nb="15">0.4;258.594</row>
                        <row nb="16">0.6;250.4793</row>
                        <row nb="17">1;238.8755</row>
                    </sfDataTable>
                </flow_curve_table>
                <flow_curve_table>
                    <fc_temperature dimension="8" unit="1" unit_symbol="°C">800.0</fc_temperature>
                    <fc_strainrate dimension="24" unit="0" unit_symbol="1/s">0.01</fc_strainrate>
                    <sfDataTable name="T=800.0 °C,phi_p=0.01 1/s" type="0" columns="2" rows="17" version="12.1">
                        <name>T=800.0 °C,phi_p=0.01 1/s</name>
                        <idTag>8</idTag>
                        <comment></comment>
                        <type>0</type>
                        <columns>2</columns>
                        <rows>17</rows>
                        <columndata title="" type="0" datatype="1" fffunit="-1" unit_symbol="-" usage="1">
                            <name></name>
                        </columndata>
                        <columndata title="" type="0" datatype="1" fffunit="851971" unit_symbol="MPa" usage="2">
                            <name></name>
                        </columndata>
                        <row nb="1">0;82.35120000000001</row>
                        <row nb="2">0.02;140.5828</row>
                        <row nb="3">0.04;154.8654</row>
                        <row nb="4">0.06;154.8571</row>
                        <row nb="5">0.08;154.8346</row>
                        <row nb="6">0.1;154.7879</row>
                        <row nb="7">0.12;154.7052</row>
                        <row nb="8">0.14;154.5754</row>
                        <row nb="9">0.16;154.3886</row>
                        <row nb="10">0.18;154.1463</row>
                        <row nb="11">0.2;153.8371</row>
                        <row nb="12">0.22;153.4653</row>
                        <row nb="13">0.26;152.5938</row>
                        <row nb="14">0.3;151.6031</row>
                        <row nb="15">0.4;149.0087</row>
                        <row nb="16">0.6;144.3137</row>
                        <row nb="17">1;137.6189</row>
                    </sfDataTable>
                </flow_curve_table>
                <flow_curve_table>
                    <fc_temperature dimension="8" unit="1" unit_symbol="°C">900.0</fc_temperature>
                    <fc_strainrate dimension="24" unit="0" unit_symbol="1/s">0.01</fc_strainrate>
                    <sfDataTable name="T=900.0 °C,phi_p=0.01 1/s" type="0" columns="2" rows="17" version="12.1">
                        <name>T=900.0 °C,phi_p=0.01 1/s</name>
                        <idTag>9</idTag>
                        <comment></comment>
                        <type>0</type>
                        <columns>2</columns>
                        <rows>17</rows>
                        <columndata title="" type="0" datatype="1" fffunit="-1" unit_symbol="-" usage="1">
                            <name></name>
                        </columndata>
                        <columndata title="" type="0" datatype="1" fffunit="851971" unit_symbol="MPa" usage="2">
                            <name></name>
                        </columndata>
                        <row nb="1">0;79.80070000000001</row>
                        <row nb="2">0.02;90.0977</row>
                        <row nb="3">0.04;90.0966</row>
                        <row nb="4">0.06;90.092</row>
                        <row nb="5">0.08;90.0795</row>
                        <row nb="6">0.1;90.0536</row>
                        <row nb="7">0.12;90.008</row>
                        <row nb="8">0.14;89.9308</row>
                        <row nb="9">0.16;89.81780000000001</row>
                        <row nb="10">0.18;89.6696</row>
                        <row nb="11">0.2;89.48609999999999</row>
                        <row nb="12">0.22;89.2744</row>
                        <row nb="13">0.26;88.76860000000001</row>
                        <row nb="14">0.3;88.19119999999999</row>
                        <row nb="15">0.4;86.6618</row>
                        <row nb="16">0.6;83.9676</row>
                        <row nb="17">1;80.0664</row>
                    </sfDataTable>
                </flow_curve_table>
                <flow_curve_table>
                    <fc_temperature dimension="8" unit="1" unit_symbol="°C">1000.0</fc_temperature>
                    <fc_strainrate dimension="24" unit="0" unit_symbol="1/s">0.01</fc_strainrate>
                    <sfDataTable name="T=1000.0 °C,phi_p=0.01 1/s" type="0" columns="2" rows="17" version="12.1">
                        <name>T=1000.0 °C,phi_p=0.01 1/s</name>
                        <idTag>10</idTag>
                        <comment></comment>
                        <type>0</type>
                        <columns>2</columns>
                        <rows>17</rows>
                        <columndata title="" type="0" datatype="1" fffunit="-1" unit_symbol="-" usage="1">
                            <name></name>
                        </columndata>
                        <columndata title="" type="0" datatype="1" fffunit="851971" unit_symbol="MPa" usage="2">
                            <name></name>
                        </columndata>
                        <row nb="1">0;54.2908</row>
                        <row nb="2">0.02;54.2908</row>
                        <row nb="3">0.04;54.2901</row>
                        <row nb="4">0.06;54.2872</row>
                        <row nb="5">0.08;54.2794</row>
                        <row nb="6">0.1;54.2632</row>
                        <row nb="7">0.12;54.2347</row>
                        <row nb="8">0.14;54.1903</row>
                        <row nb="9">0.16;54.1273</row>
                        <row nb="10">0.18;54.047</row>
                        <row nb="11">0.2;53.9379</row>
                        <row nb="12">0.22;53.7964</row>
                        <row nb="13">0.26;53.4713</row>
                        <row nb="14">0.3;53.1391</row>
                        <row nb="15">0.4;52.2071</row>
                        <row nb="16">0.6;50.5432</row>
                        <row nb="17">1;48.2048</row>
                    </sfDataTable>
                </flow_curve_table>
                <flow_curve_table>
                    <fc_temperature dimension="8" unit="1" unit_symbol="°C">1100.0</fc_temperature>
                    <fc_strainrate dimension="24" unit="0" unit_symbol="1/s">0.01</fc_strainrate>
                    <sfDataTable name="T=1100.0 °C,phi_p=0.01 1/s" type="0" columns="2" rows="17" version="12.1">
                        <name>T=1100.0 °C,phi_p=0.01 1/s</name>
                        <idTag>11</idTag>
                        <comment></comment>
                        <type>0</type>
                        <columns>2</columns>
                        <rows>17</rows>
                        <columndata title="" type="0" datatype="1" fffunit="-1" unit_symbol="-" usage="1">
                            <name></name>
                        </columndata>
                        <columndata title="" type="0" datatype="1" fffunit="851971" unit_symbol="MPa" usage="2">
                            <name></name>
                        </columndata>
                        <row nb="1">0;33.8219</row>
                        <row nb="2">0.02;33.8219</row>
                        <row nb="3">0.04;33.8214</row>
                        <row nb="4">0.06;33.8194</row>
                        <row nb="5">0.08;33.814</row>
                        <row nb="6">0.1;33.8027</row>
                        <row nb="7">0.12;33.7827</row>
                        <row nb="8">0.14;33.7509</row>
                        <row nb="9">0.16;33.7048</row>
                        <row nb="10">0.18;33.644</row>
                        <row nb="11">0.2;33.5683</row>
                        <row nb="12">0.22;33.4804</row>
                        <row nb="13">0.26;33.285</row>
                        <row nb="14">0.3;33.0941</row>
                        <row nb="15">0.4;32.465</row>
                        <row nb="16">0.6;31.4239</row>
                        <row nb="17">1;30.0429</row>
                    </sfDataTable>
                </flow_curve_table>
                <flow_curve_table>
                    <fc_temperature dimension="8" unit="1" unit_symbol="°C">1200.0</fc_temperature>
                    <fc_strainrate dimension="24" unit="0" unit_symbol="1/s">0.01</fc_strainrate>
                    <sfDataTable name="T=1200.0 °C,phi_p=0.01 1/s" type="0" columns="2" rows="17" version="12.1">
                        <name>T=1200.0 °C,phi_p=0.01 1/s</name>
                        <idTag>12</idTag>
                        <comment></comment>
                        <type>0</type>
                        <columns>2</columns>
                        <rows>17</rows>
                        <columndata title="" type="0" datatype="1" fffunit="-1" unit_symbol="-" usage="1">
                            <name></name>
                        </columndata>
                        <columndata title="" type="0" datatype="1" fffunit="851971" unit_symbol="MPa" usage="2">
                            <name></name>
                        </columndata>
                        <row nb="1">0;21.5326</row>
                        <row nb="2">0.02;21.5326</row>
                        <row nb="3">0.04;21.5323</row>
                        <row nb="4">0.06;21.5308</row>
                        <row nb="5">0.08;21.5269</row>
                        <row nb="6">0.1;21.5187</row>
                        <row nb="7">0.12;21.5044</row>
                        <row nb="8">0.14;21.4819</row>
                        <row nb="9">0.16;21.4497</row>
                        <row nb="10">0.18;21.4081</row>
                        <row nb="11">0.2;21.3577</row>
                        <row nb="12">0.22;21.301</row>
                        <row nb="13">0.26;21.1815</row>
                        <row nb="14">0.3;21.0728</row>
                        <row nb="15">0.4;20.647</row>
                        <row nb="16">0.6;20.0498</row>
                        <row nb="17">1;19.0785</row>
                    </sfDataTable>
                </flow_curve_table>
                <flow_curve_table>
                    <fc_temperature dimension="8" unit="1" unit_symbol="°C">1300.0</fc_temperature>
                    <fc_strainrate dimension="24" unit="0" unit_symbol="1/s">0.01</fc_strainrate>
                    <sfDataTable name="T=1300.0 °C,phi_p=0.01 1/s" type="0" columns="2" rows="17" version="12.1">
                        <name>T=1300.0 °C,phi_p=0.01 1/s</name>
                        <idTag>13</idTag>
                        <comment></comment>
                        <type>0</type>
                        <columns>2</columns>
                        <rows>17</rows>
                        <columndata title="" type="0" datatype="1" fffunit="-1" unit_symbol="-" usage="1">
                            <name></name>
[...]
                    </columndata>
                    <row nb="1">25;0.007476844</row>
                    <row nb="2">50;0.007155944</row>
                    <row nb="3">100;0.006531744</row>
                    <row nb="4">150;0.005930544</row>
                    <row nb="5">200;0.005351924</row>
                    <row nb="6">250;0.004795574</row>
                    <row nb="7">300;0.004261174</row>
                    <row nb="8">350;0.003748364</row>
                    <row nb="9">400;0.003256834</row>
                    <row nb="10">450;0.002786244</row>
                    <row nb="11">500;0.002336284</row>
                    <row nb="12">550;0.001906644</row>
                    <row nb="13">600;0.001497014</row>
                    <row nb="14">650;0.001107074</row>
                    <row nb="15">700;0.000736544</row>
                    <row nb="16">750;0.000385124</row>
                    <row nb="17">800;5.25142e-5</row>
                    <row nb="18">808.36;0</row>
                </sfDataTable>
            </volume_change>
            <trip_coefficient id="65">
                <sfDataTable name="Trip coefficient" type="0" columns="2" rows="27" version="12.1">
                    <name>Trip coefficient</name>
                    <idTag>222##Martensite</idTag>
                    <comment></comment>
                    <type>0</type>
                    <columns>2</columns>
                    <rows>27</rows>
                    <columndata title="Temperature" type="0" datatype="1" fffunit="524289" unit_symbol="°C" usage="1">
                        <name>Temperature</name>
                    </columndata>
                    <columndata title="Trip coefficient" type="0" datatype="1" fffunit="2621440" unit_symbol="1/MPa" usage="2">
                        <name>Trip coefficient</name>
                    </columndata>
                    <row nb="1">25;0.0001532482534499514</row>
                    <row nb="2">50;0.0001609366358674674</row>
                    <row nb="3">100;0.0001719067891450218</row>
                    <row nb="4">150;0.0001781540887745393</row>
                    <row nb="5">200;0.0001808054563253955</row>
                    <row nb="6">250;0.0001807255983654249</row>
                    <row nb="7">300;0.0001785765535498649</row>
                    <row nb="8">350;0.0001748654990394166</row>
                    <row nb="9">400;0.0001699870514592663</row>
                    <row nb="10">450;0.0001642491192681773</row>
                    <row nb="11">500;0.0001578917891003663</row>
                    <row nb="12">550;0.000151107584338911</row>
                    <row nb="13">600;0.0001440520009202829</row>
                    <row nb="14">650;0.0001368478875368828</row>
                    <row nb="15">700;0.0001295966952577763</row>
                    <row nb="16">750;0.0001223813587772021</row>
                    <row nb="17">800;0.0001152689766231844</row>
                    <row nb="18">850;0.0001083143615715226</row>
                    <row nb="19">900;0.0001015647870507032</row>
                    <row nb="20">950;9.505833730600947e-5</row>
                    <row nb="21">1000;8.882509471625805e-5</row>
                    <row nb="22">1050;8.289258094372057e-5</row>
                    <row nb="23">1100;7.728121409129112e-5</row>
                    <row nb="24">1150;7.200904492651453e-5</row>
                    <row nb="25">1200;6.709095974803685e-5</row>
                    <row nb="26">1250;6.253782203428503e-5</row>
                    <row nb="27">1300;5.836013188415565e-5</row>
                </sfDataTable>
            </trip_coefficient>
            <ttt_martensite_0_percent_temp dimension="8" unit="1" unit_symbol="°C">389.3720000000001</ttt_martensite_0_percent_temp>
            <ttt_martensite_50_percent_temp dimension="8" unit="1" unit_symbol="°C">355.710356055141</ttt_martensite_50_percent_temp>
            <ttt_martensite_90_percent_temp dimension="8" unit="1" unit_symbol="°C">277.5504392594778</ttt_martensite_90_percent_temp>
            <cct_1_percent id="67">
                <sfDataTable name="CCT phase fraction" type="0" columns="2" rows="15" version="12.1">
                    <name>CCT phase fraction</name>
                    <idTag>212##Martensite</idTag>
                    <comment></comment>
                    <type>0</type>
                    <columns>2</columns>
                    <rows>15</rows>
                    <columndata title="Cooling rate" type="0" datatype="1" fffunit="2097152" unit_symbol="K/s" usage="1">
                        <name>Cooling rate</name>
                    </columndata>
                    <columndata title="Temperature" type="0" datatype="1" fffunit="524288" unit_symbol="K" usage="2">
                        <name>Temperature</name>
                    </columndata>
                    <row nb="1">5;638.1099999999999</row>
                    <row nb="2">6;640.79</row>
                    <row nb="3">7;643.14</row>
                    <row nb="4">8;645.0799999999999</row>
                    <row nb="5">9;646.78</row>
                    <row nb="6">10;648.4400000000001</row>
                    <row nb="7">20;656.66</row>
                    <row nb="8">30;659.41</row>
                    <row nb="9">40;660.8199999999999</row>
                    <row nb="10">50;661.49</row>
                    <row nb="11">60;661.8499999999999</row>
                    <row nb="12">70;662.04</row>
                    <row nb="13">80;662.23</row>
                    <row nb="14">90;662.3</row>
                    <row nb="15">100;662.3399999999999</row>
                </sfDataTable>
            </cct_1_percent>
            <cct_martensite_50_percent_temp id="68">
                <sfDataTable name="Martensite 50% temperature" type="0" columns="2" rows="15" version="12.1">
                    <name>Martensite 50% temperature</name>
                    <idTag>214##Martensite</idTag>
                    <comment></comment>
                    <type>0</type>
                    <columns>2</columns>
                    <rows>15</rows>
                    <columndata title="Cooling rate" type="0" datatype="1" fffunit="2097152" unit_symbol="K/s" usage="1">
                        <name>Cooling rate</name>
                    </columndata>
                    <columndata title="Temperature" type="0" datatype="1" fffunit="524288" unit_symbol="K" usage="2">
                        <name>Temperature</name>
                    </columndata>
                    <row nb="1">5;603.8099999999999</row>
                    <row nb="2">6;606.5599999999999</row>
                    <row nb="3">7;608.97</row>
                    <row nb="4">8;610.96</row>
                    <row nb="5">9;612.72</row>
                    <row nb="6">10;614.42</row>
                    <row nb="7">20;622.8499999999999</row>
                    <row nb="8">30;625.67</row>
                    <row nb="9">40;627.12</row>
                    <row nb="10">50;627.8</row>
                    <row nb="11">60;628.17</row>
                    <row nb="12">70;628.37</row>
                    <row nb="13">80;628.5699999999999</row>
                    <row nb="14">90;628.63</row>
                    <row nb="15">100;628.67</row>
                </sfDataTable>
            </cct_martensite_50_percent_temp>
            <cct_martensite_90_percent_temp id="69">
                <sfDataTable name="Martensite 90% temperature" type="0" columns="2" rows="15" version="12.1">
                    <name>Martensite 90% temperature</name>
                    <idTag>215##Martensite</idTag>
                    <comment></comment>
                    <type>0</type>
                    <columns>2</columns>
                    <rows>15</rows>
                    <columndata title="Cooling rate" type="0" datatype="1" fffunit="2097152" unit_symbol="K/s" usage="1">
                        <name>Cooling rate</name>
                    </columndata>
                    <columndata title="Temperature" type="0" datatype="1" fffunit="524288" unit_symbol="K" usage="2">
                        <name>Temperature</name>
                    </columndata>
                    <row nb="1">5;524.17</row>
                    <row nb="2">6;527.0899999999999</row>
                    <row nb="3">7;529.64</row>
                    <row nb="4">8;531.75</row>
                    <row nb="5">9;533.6099999999999</row>
                    <row nb="6">10;535.41</row>
                    <row nb="7">20;544.3399999999999</row>
                    <row nb="8">30;547.3199999999999</row>
                    <row nb="9">40;548.8599999999999</row>
                    <row nb="10">50;549.5799999999999</row>
                    <row nb="11">60;549.97</row>
                    <row nb="12">70;550.1799999999999</row>
                    <row nb="13">80;550.39</row>
                    <row nb="14">90;550.46</row>
                    <row nb="15">100;550.5</row>
                </sfDataTable>
            </cct_martensite_90_percent_temp>
            <cct_phase_fraction id="70">
                <sfDataTable name="CCT phase fraction" type="0" columns="2" rows="37" version="12.1">
                    <name>CCT phase fraction</name>
                    <idTag>216##Martensite</idTag>
                    <comment></comment>
                    <type>0</type>
                    <columns>2</columns>
                    <rows>37</rows>
                    <columndata title="Cooling rate" type="0" datatype="1" fffunit="2097152" unit_symbol="K/s" usage="1">
                        <name>Cooling rate</name>
                    </columndata>
                    <columndata title="Martensite fraction" type="0" datatype="1" fffunit="-1" unit_symbol="-" usage="2">
                        <name>Martensite fraction</name>
                    </columndata>
                    <row nb="1">0.01;0</row>
                    <row nb="2">0.02;0</row>
                    <row nb="3">0.03;0</row>
                    <row nb="4">0.04;0</row>
                    <row nb="5">0.05;0</row>
                    <row nb="6">0.06;0</row>
                    <row nb="7">0.07000000000000001;0</row>
                    <row nb="8">0.08;0</row>
                    <row nb="9">0.09;0</row>
                    <row nb="10">0.1;0</row>
                    <row nb="11">0.2;0</row>
                    <row nb="12">0.3;0</row>
                    <row nb="13">0.4;0</row>
                    <row nb="14">0.5;0</row>
                    <row nb="15">0.6;0</row>
                    <row nb="16">0.7;0</row>
                    <row nb="17">0.8;0</row>
                    <row nb="18">0.9;0</row>
                    <row nb="19">1;0</row>
                    <row nb="20">2;0</row>
                    <row nb="21">3;0</row>
                    <row nb="22">4;0</row>
                    <row nb="23">5;0.00364652</row>
                    <row nb="24">6;0.0918655</row>
                    <row nb="25">7;0.173873</row>
                    <row nb="26">8;0.259775</row>
                    <row nb="27">9;0.345442</row>
                    <row nb="28">10;0.424953</row>
                    <row nb="29">20;0.838537</row>
                    <row nb="30">30;0.930861</row>
                    <row nb="31">40;0.963066</row>
                    <row nb="32">50;0.977009</row>
                    <row nb="33">60;0.984843</row>
                    <row nb="34">70;0.989269</row>
                    <row nb="35">80;0.992248</row>
                    <row nb="36">90;0.994574</row>
                    <row nb="37">100;0.995497</row>
                </sfDataTable>
            </cct_phase_fraction>
        </phase_transformation_martensite>
        <cct_0.2_percent_proof_stress id="71">
            <sfDataTable name="Proof stress" type="0" columns="2" rows="29" version="12.1">
                <name>Proof stress</name>
                <idTag>217##Default</idTag>
                <comment></comment>
                <type>0</type>
                <columns>2</columns>
                <rows>29</rows>
                <columndata title="Temperaturrate" type="0" datatype="1" fffunit="2097152" unit_symbol="K/s" usage="1">
                    <name>Cooling rate</name>
                </columndata>
                <columndata title="Druck" type="0" datatype="1" fffunit="851971" unit_symbol="MPa" usage="2">
                    <name>0.2% proof stress</name>
                </columndata>
                <row nb="1">0.01;1500</row>
                <row nb="2">0.02;452.933</row>
                <row nb="3">0.3;452.933</row>
                <row nb="4">0.4;460.513</row>
                <row nb="5">0.5;465.07</row>
                <row nb="6">0.6;469.885</row>
                <row nb="7">0.7;473.989</row>
                <row nb="8">0.8;477.896</row>
                <row nb="9">0.9;481.93</row>
                <row nb="10">1;485.384</row>
                <row nb="11">2;504.629</row>
                <row nb="12">3;521.433</row>
                <row nb="13">4;535.425</row>
                <row nb="14">5;550.696</row>
                <row nb="15">6;641.9450000000001</row>
                <row nb="16">7.000000000000001;722.401</row>
                <row nb="17">8;801.444</row>
                <row nb="18">9;877.2670000000001</row>
                <row nb="19">10;945.134</row>
                <row nb="20">20;1253.38</row>
                <row nb="21">30;1308.43</row>
                <row nb="22">40;1324.37</row>
                <row nb="23">50;1330.71</row>
                <row nb="24">60;1334.21</row>
                <row nb="25">70;1336.23</row>
                <row nb="26">80;1337.24</row>
                <row nb="27">90;1338.44</row>
                <row nb="28">100;1338.83</row>
                <row nb="29">300;1339.22</row>
            </sfDataTable>
        </cct_0.2_percent_proof_stress>
        <cct_tensile_stress id="72">
            <sfDataTable name="Default" type="0" columns="2" rows="27" version="12.1">
                <name>Default</name>
                <idTag>218##Default</idTag>
                <comment></comment>
                <type>0</type>
                <columns>2</columns>
                <rows>27</rows>
                <columndata title="T8/5 cooling rate" type="0" datatype="1" fffunit="2097152" unit_symbol="K/s" usage="1">
                    <name>Cooling rate</name>
                </columndata>
                <columndata title="Stress" type="0" datatype="1" fffunit="851971" unit_symbol="MPa" usage="2">
                    <name>Tensile stress</name>
                </columndata>
                <row nb="1">0.3;667.1319999999999</row>
                <row nb="2">0.4;676.444</row>
                <row nb="3">0.5;682.021</row>
                <row nb="4">0.6;687.897</row>
                <row nb="5">0.7;692.8920000000001</row>
                <row nb="6">0.8;697.635</row>
                <row nb="7">0.9;702.522</row>
                <row nb="8">1;706.696</row>
                <row nb="9">2;729.799</row>
                <row nb="10">3;749.764</row>
                <row nb="11">4;766.244</row>
                <row nb="12">5;784.085</row>
                <row nb="13">6;887.795</row>
                <row nb="14">7.000000000000001;975.603</row>
                <row nb="15">8;1059.07</row>
                <row nb="16">9;1136.93</row>
                <row nb="17">10;1205.05</row>
                <row nb="18">20;1500.79</row>
                <row nb="19">30;1551.92</row>
                <row nb="20">40;1566.66</row>
                <row nb="21">50;1572.5</row>
                <row nb="22">60;1575.73</row>
                <row nb="23">70;1577.6</row>
                <row nb="24">80;1578.53</row>
                <row nb="25">90;1579.63</row>
                <row nb="26">100;1579.99</row>
                <row nb="27">300;1580.35</row>
            </sfDataTable>
        </cct_tensile_stress>
        <cct_hardness id="73">
            <sfDataTable name="Hardness" type="0" columns="2" rows="29" version="12.1">
                <name>Hardness</name>
                <idTag>219##Default</idTag>
                <comment></comment>
                <type>0</type>
                <columns>2</columns>
                <rows>29</rows>
                <columndata title="Temperaturrate" type="0" datatype="1" fffunit="2097152" unit_symbol="K/s" usage="1">
                    <name>Cooling rate</name>
                </columndata>
                <columndata title="Härte" type="0" datatype="1" fffunit="2424837" unit_symbol="HV" usage="2">
                    <name>Hardness</name>
                </columndata>
                <row nb="1">0.01;530</row>
                <row nb="2">0.02;186.85</row>
                <row nb="3">0.3;186.8500991022514</row>
                <row nb="4">0.4;190.5621439791863</row>
                <row nb="5">0.5;192.7859173031338</row>
                <row nb="6">0.6;195.1293923056568</row>
                <row nb="7">0.7;197.1225476335007</row>
                <row nb="8">0.8;199.0144720603937</row>
                <row nb="9">0.9;200.9642065431748</row>
                <row nb="10">1;202.6301270520105</row>
                <row nb="11">2;211.8504042698507</row>
                <row nb="12">3;219.8152020328837</row>
                <row nb="13">4;226.3834134574859</row>
                <row nb="14">5;233.4858244232022</row>
                <row nb="15">6;274.4900845341614</row>
                <row nb="16">7.000000000000001;308.6355758862022</row>
                <row nb="17">8;340.4535546288025</row>
                <row nb="18">9;369.4849587061771</row>
                <row nb="19">10;394.3279689798327</row>
                <row nb="20">20;489.7364432785482</row>
                <row nb="21">30;504.249902802776</row>
                <row nb="22">40;508.3805980310818</row>
                <row nb="23">50;510.0140464688913</row>
                <row nb="24">60;510.9151979590127</row>
                <row nb="25">70;511.4341569548759</row>
                <row nb="26">80;511.6939689176629</row>
                <row nb="27">90;512.0012465670808</row>
                <row nb="28">100;512.1015962010058</row>
                <row nb="29">300;512.2019458349292</row>
            </sfDataTable>
        </cct_hardness>
    </phase_transformation>
    <chemical_composition>
        <element name="Al" min="0" max="0" fix="0.039"/>
        <element name="B" min="0" max="0" fix="0.003"/>
        <element name="C" min="0" max="0" fix="0.24"/>
        <element name="Co" min="0" max="0" fix="0.005"/>
        <element name="Cr" min="0" max="0" fix="0.12"/>
        <element name="Cu" min="0" max="0" fix="0.015"/>
        <element name="Fe" min="0" max="0" fix="97.99639999999999"/>
        <element name="Mn" min="0" max="0" fix="1.24"/>
        <element name="Mo" min="0" max="0" fix="0.004"/>
        <element name="N" min="0" max="0" fix="0.0008"/>
        <element name="Ni" min="0" max="0" fix="0.02"/>
        <element name="P" min="0" max="0" fix="0.012"/>
        <element name="S" min="0" max="0" fix="0.001"/>
        <element name="Si" min="0" max="0" fix="0.26"/>
        <element name="Ta" min="0" max="0" fix="0.003"/>
        <element name="Ti" min="0" max="0" fix="0.035"/>
        <element name="V" min="0" max="0" fix="0.0008"/>
        <element name="W" min="0" max="0" fix="0.005"/>
    </chemical_composition>
    <misc>
        <misc_modified>true</misc_modified>
    </misc>
</sfMaterialData>
