<?xml version="1.0" encoding="UTF-8"?>
<!DOCTYPE sfMaterials>
<sfMaterialData>
    <modified_on_date>2021-10-22T14:18:13</modified_on_date>
    <import_date>2015-03-27T14:01:34</import_date>
    <file_version>1634546601</file_version>
    <class>Welding</class>
    <group isUserDefined="false">General steel</group>
    <condition isUserDefined="true"></condition>
    <norm>1.0116</norm>
    <jis_norm>SN400A</jis_norm>
    <aisi_norm>1311</aisi_norm>
    <gb_norm>Q235A-JMP-MPM_sw</gb_norm>
    <source>JMatPro</source>
    <author>J. Sakkiettibutra</author>
    <comment>Alloy calculated with JMatPro 
ALLOY_ID_WT% C0.15Cu0.4Fe98.293Mn1.1N0.01P0.02S0.027
GRAIN_SIZE_ASTM = 7.511734060316082
AUSTENITISATION_TEMP_C = 1300.0
COOLING RATE (C/s)  = 171.0106294169949

Transformation data calculated using the simufact.premap interface with 10Microns starting at 1350°C.
Flow curves calculated with 30Microns starting at 1300°C.

t8/5 dependencies (hardness/proof-strength/tensile strength): 
Seyffarth, P.: Grosser Atlas Schweiß-ZTU-Schaubilder. Bearbeitet von P.Seyffarth, B. Meyer, A. Scharff. Dt. Verlag für Schweißtechnik, DVS-Verlag, Düsseldorf 1992.
Hardness, tensile strength and proof stress of base material modelled by definition of values for a very high cooling rate (0.01K/s), measured values between t8/5-time 1s and 100s.
Updated 26.03.2014
Updated 19.11.2014 - volume_change considers data only during cooling under A3

Electrical material properties based on: 
Wink, H.-J.; Krätschmer, D.: Charakterisierung und Modellierung des Bruchverhaltens von Punktschweißverbindungen in pressgehärteten Stählen, Teil II - Simulation des Schweißprozesses. 
11. LS-DYNA Forum, Ulm, 2012.

Poisson's ratio set to 0.3
Updated 19.05.2015</comment>
    <name>S235-JMP-MPM_sw</name>
    <min_temperature dimension="8" unit="1" unit_symbol="°C">25.0</min_temperature>
    <max_temperature dimension="8" unit="1" unit_symbol="°C">1400.0</max_temperature>
    <min_effective_plastic_strain dimension="-1" unit="0" unit_symbol="-">0.0</min_effective_plastic_strain>
    <max_effective_plastic_strain dimension="-1" unit="0" unit_symbol="-">1.0</max_effective_plastic_strain>
    <min_strain_rate dimension="24" unit="0" unit_symbol="1/s">0.01</min_strain_rate>
    <max_strain_rate dimension="24" unit="0" unit_symbol="1/s">0.01</max_strain_rate>
    <transverse_contraction dimension="-1" unit="0" unit_symbol="-">0.3</transverse_contraction>
    <transverse_contraction_user_selection_datatype>0</transverse_contraction_user_selection_datatype>
    <melting_point dimension="8" unit="1" unit_symbol="°C">1517.14319</melting_point>
    <solidus_temperature dimension="8" unit="1" unit_symbol="°C">1466.85</solidus_temperature>
    <latent_heat dimension="25" unit="0" unit_symbol="J/kg">256400.0</latent_heat>
    <dissipation_factor dimension="-1" unit="0" unit_symbol="-">0.9</dissipation_factor>
    <dissipation_factor_user_selection_datatype>0</dissipation_factor_user_selection_datatype>
    <electrical_resisitivity_user_selection_datatype>1</electrical_resisitivity_user_selection_datatype>
    <flow_curves_used_approach>0</flow_curves_used_approach>
    <flow_curves_table_approach>
        <usePeakTemperatures>false</usePeakTemperatures>
        <temperatures count="15">
            <temperature dimension="8" unit="1" unit_symbol="°C">25.0</temperature>
            <temperature dimension="8" unit="1" unit_symbol="°C">100.0</temperature>
            <temperature dimension="8" unit="1" unit_symbol="°C">200.0</temperature>
            <temperature dimension="8" unit="1" unit_symbol="°C">300.0</temperature>
            <temperature dimension="8" unit="1" unit_symbol="°C">400.0</temperature>
            <temperature dimension="8" unit="1" unit_symbol="°C">500.0</temperature>
            <temperature dimension="8" unit="1" unit_symbol="°C">600.0</temperature>
            <temperature dimension="8" unit="1" unit_symbol="°C">700.0</temperature>
            <temperature dimension="8" unit="1" unit_symbol="°C">800.0</temperature>
            <temperature dimension="8" unit="1" unit_symbol="°C">900.0</temperature>
            <temperature dimension="8" unit="1" unit_symbol="°C">1000.0</temperature>
            <temperature dimension="8" unit="1" unit_symbol="°C">1100.0</temperature>
            <temperature dimension="8" unit="1" unit_symbol="°C">1200.0</temperature>
            <temperature dimension="8" unit="1" unit_symbol="°C">1300.0</temperature>
            <temperature dimension="8" unit="1" unit_symbol="°C">1400.0</temperature>
        </temperatures>
        <strain_rates count="1">
            <strain_rate dimension="24" unit="0" unit_symbol="1/s">0.01</strain_rate>
        </strain_rates>
        <flow_curve_table>
            <fc_temperature dimension="8" unit="1" unit_symbol="°C">25.0</fc_temperature>
            <fc_strainrate dimension="24" unit="0" unit_symbol="1/s">0.01</fc_strainrate>
            <sfDataTable name="T=25.0 °C,phi_p=0.01 1/s" type="0" columns="2" rows="17" version="12.1">
                <idTag>0</idTag>
                <type>0</type>
                <columns>2</columns>
                <rows>17</rows>
                <columndata type="0" datatype="1" fffunit="-1" unit_symbol="-" usage="1"/>
                <columndata type="0" datatype="1" fffunit="851971" unit_symbol="MPa" usage="2"/>
                <row nb="1">0;213.49</row>
                <row nb="2">0.02;299.3878</row>
                <row nb="3">0.04;331.4685</row>
                <row nb="4">0.06;351.8054</row>
                <row nb="5">0.08;366.9869</row>
                <row nb="6">0.1;379.2123</row>
                <row nb="7">0.12;389.5029</row>
                <row nb="8">0.14;398.421</row>
                <row nb="9">0.16;406.3112</row>
                <row nb="10">0.18;413.4003</row>
                <row nb="11">0.2;419.8466</row>
                <row nb="12">0.22;425.7645</row>
                <row nb="13">0.26;436.3389</row>
                <row nb="14">0.3;445.6057</row>
                <row nb="15">0.4;464.835</row>
                <row nb="16">0.6;493.3544</row>
                <row nb="17">1;531.7885</row>
            </sfDataTable>
        </flow_curve_table>
        <flow_curve_table>
            <fc_temperature dimension="8" unit="1" unit_symbol="°C">100.0</fc_temperature>
            <fc_strainrate dimension="24" unit="0" unit_symbol="1/s">0.01</fc_strainrate>
            <sfDataTable name="T=100.0 °C,phi_p=0.01 1/s" type="0" columns="2" rows="17" version="12.1">
                <idTag>1</idTag>
                <type>0</type>
                <columns>2</columns>
                <rows>17</rows>
                <columndata type="0" datatype="1" fffunit="-1" unit_symbol="-" usage="1"/>
                <columndata type="0" datatype="1" fffunit="851971" unit_symbol="MPa" usage="2"/>
                <row nb="1">0;167.397</row>
                <row nb="2">0.02;236.6072</row>
                <row nb="3">0.04;262.5832</row>
                <row nb="4">0.06;279.0808</row>
                <row nb="5">0.08;291.4109</row>
                <row nb="6">0.1;301.3488</row>
                <row nb="7">0.12;309.7197</row>
                <row nb="8">0.14;316.9784</row>
                <row nb="9">0.16;323.4035</row>
                <row nb="10">0.18;329.1789</row>
                <row nb="11">0.2;334.4324</row>
                <row nb="12">0.22;339.2571</row>
                <row nb="13">0.26;347.8819</row>
                <row nb="14">0.3;355.4442</row>
                <row nb="15">0.4;371.1482</row>
                <row nb="16">0.6;394.4667</row>
                <row nb="17">1;425.9414</row>
            </sfDataTable>
        </flow_curve_table>
        <flow_curve_table>
            <fc_temperature dimension="8" unit="1" unit_symbol="°C">200.0</fc_temperature>
            <fc_strainrate dimension="24" unit="0" unit_symbol="1/s">0.01</fc_strainrate>
            <sfDataTable name="T=200.0 °C,phi_p=0.01 1/s" type="0" columns="2" rows="17" version="12.1">
                <idTag>2</idTag>
                <type>0</type>
                <columns>2</columns>
                <rows>17</rows>
                <columndata type="0" datatype="1" fffunit="-1" unit_symbol="-" usage="1"/>
                <columndata type="0" datatype="1" fffunit="851971" unit_symbol="MPa" usage="2"/>
                <row nb="1">0;135.334</row>
                <row nb="2">0.02;192.3605</row>
                <row nb="3">0.04;213.8385</row>
                <row nb="4">0.06;227.4975</row>
                <row nb="5">0.08;237.7146</row>
                <row nb="6">0.1;245.9546</row>
                <row nb="7">0.12;252.8987</row>
                <row nb="8">0.14;258.9226</row>
                <row nb="9">0.16;264.2566</row>
                <row nb="10">0.18;269.0527</row>
                <row nb="11">0.2;273.4166</row>
                <row nb="12">0.22;277.4252</row>
                <row nb="13">0.26;284.5936</row>
                <row nb="14">0.3;290.8812</row>
                <row nb="15">0.4;303.9449</row>
                <row nb="16">0.6;323.3595</row>
                <row nb="17">1;349.594</row>
            </sfDataTable>
        </flow_curve_table>
        <flow_curve_table>
            <fc_temperature dimension="8" unit="1" unit_symbol="°C">300.0</fc_temperature>
            <fc_strainrate dimension="24" unit="0" unit_symbol="1/s">0.01</fc_strainrate>
            <sfDataTable name="T=300.0 °C,phi_p=0.01 1/s" type="0" columns="2" rows="17" version="12.1">
                <idTag>3</idTag>
                <type>0</type>
                <columns>2</columns>
                <rows>17</rows>
                <columndata type="0" datatype="1" fffunit="-1" unit_symbol="-" usage="1"/>
                <columndata type="0" datatype="1" fffunit="851971" unit_symbol="MPa" usage="2"/>
                <row nb="1">0;117.234</row>
                <row nb="2">0.02;167.1671</row>
                <row nb="3">0.04;186.0111</row>
                <row nb="4">0.06;198.004</row>
                <row nb="5">0.08;206.9792</row>
                <row nb="6">0.1;214.2201</row>
                <row nb="7">0.12;220.324</row>
                <row nb="8">0.14;225.6203</row>
                <row nb="9">0.16;230.311</row>
                <row nb="10">0.18;234.5293</row>
                <row nb="11">0.2;238.3681</row>
                <row nb="12">0.22;241.8949</row>
                <row nb="13">0.26;248.2027</row>
                <row nb="14">0.3;253.7367</row>
                <row nb="15">0.4;265.2382</row>
                <row nb="16">0.6;282.3393</row>
                <row nb="17">1;305.4623</row>
            </sfDataTable>
        </flow_curve_table>
        <flow_curve_table>
            <fc_temperature dimension="8" unit="1" unit_symbol="°C">400.0</fc_temperature>
            <fc_strainrate dimension="24" unit="0" unit_symbol="1/s">0.01</fc_strainrate>
            <sfDataTable name="T=400.0 °C,phi_p=0.01 1/s" type="0" columns="2" rows="17" version="12.1">
                <idTag>4</idTag>
                <type>0</type>
                <columns>2</columns>
                <rows>17</rows>
                <columndata type="0" datatype="1" fffunit="-1" unit_symbol="-" usage="1"/>
                <columndata type="0" datatype="1" fffunit="851971" unit_symbol="MPa" usage="2"/>
                <row nb="1">0;105.671</row>
                <row nb="2">0.02;150.9895</row>
                <row nb="3">0.04;168.1138</row>
                <row nb="4">0.06;179.0177</row>
                <row nb="5">0.08;187.1804</row>
                <row nb="6">0.1;193.7673</row>
                <row nb="7">0.12;199.3209</row>
                <row nb="8">0.14;204.1404</row>
                <row nb="9">0.16;208.4094</row>
                <row nb="10">0.18;212.2489</row>
                <row nb="11">0.2;215.7433</row>
                <row nb="12">0.22;218.954</row>
                <row nb="13">0.26;224.6971</row>
                <row nb="14">0.3;229.7365</row>
                <row nb="15">0.4;240.2118</row>
                <row nb="16">0.6;255.7919</row>
                <row nb="17">1;276.8671</row>
            </sfDataTable>
        </flow_curve_table>
        <flow_curve_table>
            <fc_temperature dimension="8" unit="1" unit_symbol="°C">500.0</fc_temperature>
            <fc_strainrate dimension="24" unit="0" unit_symbol="1/s">0.01</fc_strainrate>
            <sfDataTable name="T=500.0 °C,phi_p=0.01 1/s" type="0" columns="2" rows="17" version="12.1">
                <idTag>5</idTag>
                <type>0</type>
                <columns>2</columns>
                <rows>17</rows>
                <columndata type="0" datatype="1" fffunit="-1" unit_symbol="-" usage="1"/>
                <columndata type="0" datatype="1" fffunit="851971" unit_symbol="MPa" usage="2"/>
                <row nb="1">0;97.6681</row>
                <row nb="2">0.02;139.7542</row>
                <row nb="3">0.04;155.6714</row>
                <row nb="4">0.06;165.8101</row>
                <row nb="5">0.08;173.4015</row>
                <row nb="6">0.1;179.5284</row>
                <row nb="7">0.12;184.6949</row>
                <row nb="8">0.14;189.1788</row>
                <row nb="9">0.16;193.1509</row>
                <row nb="10">0.18;196.7237</row>
                <row nb="11">0.2;199.9757</row>
                <row nb="12">0.22;202.9637</row>
                <row nb="13">0.26;208.3091</row>
                <row nb="14">0.3;212.9998</row>
                <row nb="15">0.4;222.7517</row>
                <row nb="16">0.6;237.2592</row>
                <row nb="17">1;256.889</row>
            </sfDataTable>
        </flow_curve_table>
        <flow_curve_table>
            <fc_temperature dimension="8" unit="1" unit_symbol="°C">600.0</fc_temperature>
            <fc_strainrate dimension="24" unit="0" unit_symbol="1/s">0.01</fc_strainrate>
            <sfDataTable name="T=600.0 °C,phi_p=0.01 1/s" type="0" columns="2" rows="17" version="12.1">
                <idTag>6</idTag>
                <type>0</type>
                <columns>2</columns>
                <rows>17</rows>
                <columndata type="0" datatype="1" fffunit="-1" unit_symbol="-" usage="1"/>
                <columndata type="0" datatype="1" fffunit="851971" unit_symbol="MPa" usage="2"/>
                <row nb="1">0;91.8091</row>
                <row nb="2">0.02;132.9226</row>
                <row nb="3">0.04;147.3323</row>
                <row nb="4">0.06;156.6758</row>
                <row nb="5">0.08;163.7226</row>
                <row nb="6">0.1;169.4324</row>
                <row nb="7">0.12;174.2594</row>
                <row nb="8">0.14;178.456</row>
                <row nb="9">0.16;182.1784</row>
                <row nb="10">0.18;185.5299</row>
                <row nb="11">0.2;188.5829</row>
                <row nb="12">0.22;191.3899</row>
                <row nb="13">0.26;196.4152</row>
                <row nb="14">0.3;200.8285</row>
                <row nb="15">0.4;210.0122</row>
                <row nb="16">0.6;223.6902</row>
                <row nb="17">1;242.2182</row>
            </sfDataTable>
        </flow_curve_table>
        <flow_curve_table>
            <fc_temperature dimension="8" unit="1" unit_symbol="°C">700.0</fc_temperature>
            <fc_strainrate dimension="24" unit="0" unit_symbol="1/s">0.01</fc_strainrate>
            <sfDataTable name="T=700.0 °C,phi_p=0.01 1/s" type="0" columns="2" rows="17" version="12.1">
                <idTag>7</idTag>
                <type>0</type>
                <columns>2</columns>
                <rows>17</rows>
                <columndata type="0" datatype="1" fffunit="-1" unit_symbol="-" usage="1"/>
                <columndata type="0" datatype="1" fffunit="851971" unit_symbol="MPa" usage="2"/>
                <row nb="1">0;87.3385</row>
                <row nb="2">0.02;126.5286</row>
                <row nb="3">0.04;140.2914</row>
                <row nb="4">0.06;149.2142</row>
                <row nb="5">0.08;155.9434</row>
                <row nb="6">0.1;161.3961</row>
                <row nb="7">0.12;166.0057</row>
                <row nb="8">0.14;170.0135</row>
                <row nb="9">0.16;173.5685</row>
                <row nb="10">0.18;176.7694</row>
                <row nb="11">0.2;179.6852</row>
                <row nb="12">0.22;182.3661</row>
                <row nb="13">0.26;186.8861</row>
                <row nb="14">0.3;185.2485</row>
                <row nb="15">0.4;181.7491</row>
                <row nb="16">0.6;176.5099</row>
                <row nb="17">1;169.7522</row>
            </sfDataTable>
        </flow_curve_table>
        <flow_curve_table>
            <fc_temperature dimension="8" unit="1" unit_symbol="°C">800.0</fc_temperature>
            <fc_strainrate dimension="24" unit="0" unit_symbol="1/s">0.01</fc_strainrate>
            <sfDataTable name="T=800.0 °C,phi_p=0.01 1/s" type="0" columns="2" rows="17" version="12.1">
                <idTag>8</idTag>
                <type>0</type>
                <columns>2</columns>
                <rows>17</rows>
                <columndata type="0" datatype="1" fffunit="-1" unit_symbol="-" usage="1"/>
                <columndata type="0" datatype="1" fffunit="851971" unit_symbol="MPa" usage="2"/>
                <row nb="1">0;76.58459999999999</row>
                <row nb="2">0.02;76.584</row>
                <row nb="3">0.04;76.5746</row>
                <row nb="4">0.06;76.5351</row>
                <row nb="5">0.08;76.4372</row>
                <row nb="6">0.1;76.26390000000001</row>
                <row nb="7">0.12;76.0299</row>
                <row nb="8">0.14;75.6909</row>
                <row nb="9">0.16;75.3312</row>
                <row nb="10">0.18;75.00579999999999</row>
                <row nb="11">0.2;74.589</row>
                <row nb="12">0.22;74.23099999999999</row>
                <row nb="13">0.26;73.52119999999999</row>
                <row nb="14">0.3;72.9254</row>
                <row nb="15">0.4;71.49290000000001</row>
                <row nb="16">0.6;69.4276</row>
                <row nb="17">1;66.79340000000001</row>
            </sfDataTable>
        </flow_curve_table>
        <flow_curve_table>
            <fc_temperature dimension="8" unit="1" unit_symbol="°C">900.0</fc_temperature>
            <fc_strainrate dimension="24" unit="0" unit_symbol="1/s">0.01</fc_strainrate>
            <sfDataTable name="T=900.0 °C,phi_p=0.01 1/s" type="0" columns="2" rows="17" version="12.1">
                <idTag>9</idTag>
                <type>0</type>
                <columns>2</columns>
                <rows>17</rows>
                <columndata type="0" datatype="1" fffunit="-1" unit_symbol="-" usage="1"/>
                <columndata type="0" datatype="1" fffunit="851971" unit_symbol="MPa" usage="2"/>
                <row nb="1">0;33.9258</row>
                <row nb="2">0.02;33.9255</row>
                <row nb="3">0.04;33.9208</row>
                <row nb="4">0.06;33.901</row>
                <row nb="5">0.08;33.8508</row>
                <row nb="6">0.1;33.7574</row>
                <row nb="7">0.12;33.621</row>
                <row nb="8">0.14;33.459</row>
                <row nb="9">0.16;33.2966</row>
                <row nb="10">0.18;33.1539</row>
                <row nb="11">0.2;33.0388</row>
                <row nb="12">0.22;32.8593</row>
                <row nb="13">0.26;32.4644</row>
                <row nb="14">0.3;32.1971</row>
                <row nb="15">0.4;31.5648</row>
                <row nb="16">0.6;30.6663</row>
                <row nb="17">1;29.4312</row>
            </sfDataTable>
        </flow_curve_table>
        <flow_curve_table>
            <fc_temperature dimension="8" unit="1" unit_symbol="°C">1000.0</fc_temperature>
            <fc_strainrate dimension="24" unit="0" unit_symbol="1/s">0.01</fc_strainrate>
            <sfDataTable name="T=1000.0 °C,phi_p=0.01 1/s" type="0" columns="2" rows="17" version="12.1">
                <idTag>10</idTag>
                <type>0</type>
                <columns>2</columns>
                <rows>17</rows>
                <columndata type="0" datatype="1" fffunit="-1" unit_symbol="-" usage="1"/>
                <columndata type="0" datatype="1" fffunit="851971" unit_symbol="MPa" usage="2"/>
                <row nb="1">0;16.5966</row>
                <row nb="2">0.02;16.5965</row>
                <row nb="3">0.04;16.5945</row>
                <row nb="4">0.06;16.5861</row>
                <row nb="5">0.08;16.5651</row>
                <row nb="6">0.1;16.5276</row>
                <row nb="7">0.12;16.4729</row>
                <row nb="8">0.14;16.406</row>
                <row nb="9">0.16;16.329</row>
                <row nb="10">0.18;16.2493</row>
                <row nb="11">0.2;16.1696</row>
                <row nb="12">0.22;16.0922</row>
                <row nb="13">0.26;15.9398</row>
                <row nb="14">0.3;15.8034</row>
                <row nb="15">0.4;15.5047</row>
                <row nb="16">0.6;15.0558</row>
                <row nb="17">1;14.4799</row>
            </sfDataTable>
        </flow_curve_table>
        <flow_curve_table>
            <fc_temperature dimension="8" unit="1" unit_symbol="°C">1100.0</fc_temperature>
            <fc_strainrate dimension="24" unit="0" unit_symbol="1/s">0.01</fc_strainrate>
            <sfDataTable name="T=1100.0 °C,phi_p=0.01 1/s" type="0" columns="2" rows="17" version="12.1">
                <idTag>11</idTag>
                <type>0</type>
                <columns>2</columns>
                <rows>17</rows>
                <columndata type="0" datatype="1" fffunit="-1" unit_symbol="-" usage="1"/>
                <columndata type="0" datatype="1" fffunit="851971" unit_symbol="MPa" usage="2"/>
                <row nb="1">0;8.7544</row>
                <row nb="2">0.02;8.754300000000001</row>
                <row nb="3">0.04;8.7532</row>
                <row nb="4">0.06;8.748799999999999</row>
                <row nb="5">0.08;8.7378</row>
                <row nb="6">0.1;8.718299999999999</row>
                <row nb="7">0.12;8.690200000000001</row>
                <row nb="8">0.14;8.651999999999999</row>
                <row nb="9">0.16;8.6134</row>
                <row nb="10">0.18;8.5703</row>
                <row nb="11">0.2;8.5276</row>
                <row nb="12">0.22;8.488200000000001</row>
                <row nb="13">0.26;8.4087</row>
                <row nb="14">0.3;8.3322</row>
                <row nb="15">0.4;8.1759</row>
                <row nb="16">0.6;7.9381</row>
                <row nb="17">1;7.6334</row>
            </sfDataTable>
        </flow_curve_table>
        <flow_curve_table>
            <fc_temperature dimension="8" unit="1" unit_symbol="°C">1200.0</fc_temperature>
            <fc_strainrate dimension="24" unit="0" unit_symbol="1/s">0.01</fc_strainrate>
            <sfDataTable name="T=1200.0 °C,phi_p=0.01 1/s" type="0" columns="2" rows="17" version="12.1">
                <idTag>12</idTag>
                <type>0</type>
                <columns>2</columns>
                <rows>17</rows>
                <columndata type="0" datatype="1" fffunit="-1" unit_symbol="-" usage="1"/>
                <columndata type="0" datatype="1" fffunit="851971" unit_symbol="MPa" usage="2"/>
                <row nb="1">0;4.8882</row>
                <row nb="2">0.02;4.8882</row>
                <row nb="3">0.04;4.8875</row>
                <row nb="4">0.06;4.8848</row>
                <row nb="5">0.08;4.878</row>
                <row nb="6">0.1;4.8656</row>
                <row nb="7">0.12;4.848</row>
                <row nb="8">0.14;4.8277</row>
                <row nb="9">0.16;4.8082</row>
                <row nb="10">0.18;4.7841</row>
                <row nb="11">0.2;4.7563</row>
                <row nb="12">0.22;4.7324</row>
                <row nb="13">0.26;4.6951</row>
                <row nb="14">0.3;4.6456</row>
                <row nb="15">0.4;4.5577</row>
                <row nb="16">0.6;4.4257</row>
                <row nb="17">1;4.2542</row>
            </sfDataTable>
        </flow_curve_table>
        <flow_curve_table>
            <fc_temperature dimension="8" unit="1" unit_symbol="°C">1300.0</fc_temperature>
            <fc_strainrate dimension="24" unit="0" unit_symbol="1/s">0.01</fc_strainrate>
            <sfDataTable name="T=1300.0 °C,phi_p=0.01 1/s" type="0" columns="2" rows="17" version="12.1">
                <idTag>13</idTag>
                <type>0</type>
                <columns>2</columns>
                <rows>17</rows>
                <columndata type="0" datatype="1" fffunit="-1" unit_symbol="-" usage="1"/>
                <columndata type="0" datatype="1" fffunit="851971" unit_symbol="MPa" usage="2"/>
                <row nb="1">0;2.845</row>
                <row nb="2">0.02;2.845</row>
                <row nb="3">0.04;2.8446</row>
                <row nb="4">0.06;2.8428</row>
                <row nb="5">0.08;2.8384</row>
                <row nb="6">0.1;2.8309</row>
                <row nb="7">0.12;2.8211</row>
                <row nb="8">0.14;2.8109</row>
                <row nb="9">0.16;2.8021</row>
                <row nb="10">0.18;2.7853</row>
                <row nb="11">0.2;2.7659</row>
                <row nb="12">0.22;2.7487</row>
                <row nb="13">0.26;2.7227</row>
                <row nb="14">0.3;2.7064</row>
                <row nb="15">0.4;2.644</row>
                <row nb="16">0.6;2.5737</row>
                <row nb="17">1;2.4741</row>
            </sfDataTable>
        </flow_curve_table>
        <flow_curve_table>
            <fc_temperature dimension="8" unit="1" unit_symbol="°C">1400.0</fc_temperature>
            <fc_strainrate dimension="24" unit="0" unit_symbol="1/s">0.01</fc_strainrate>
            <sfDataTable name="T=1400.0 °C,phi_p=0.01 1/s" type="0" columns="2" rows="17" version="12.1">
                <idTag>14</idTag>
                <type>0</type>
                <columns>2</columns>
                <rows>17</rows>
                <columndata type="0" datatype="1" fffunit="-1" unit_symbol="-" usage="1"/>
                <columndata type="0" datatype="1" fffunit="851971" unit_symbol="MPa" usage="2"/>
                <row nb="1">0;1.7144</row>
                <row nb="2">0.02;1.7144</row>
                <row nb="3">0.04;1.714</row>
                <row nb="4">0.06;1.7128</row>
                <row nb="5">0.08;1.7102</row>
                <row nb="6">0.1;1.7064</row>
                <row nb="7">0.12;1.7026</row>
                <row nb="8">0.14;1.6978</row>
                <row nb="9">0.16;1.6843</row>
                <row nb="10">0.18;1.6699</row>
                <row nb="11">0.2;1.6562</row>
                <row nb="12">0.22;1.644</row>
                <row nb="13">0.26;1.6255</row>
                <row nb="14">0.3;1.6139</row>
                <row nb="15">0.4;1.6012</row>
                <row nb="16">0.6;1.5281</row>
                <row nb="17">1;1.4983</row>
            </sfDataTable>
        </flow_curve_table>
    </flow_curves_table_approach>
    <phase_transformation>
        <austenitisation_temp dimension="8" unit="1" unit_symbol="°C">1300.0</austenitisation_temp>
        <grain_size dimension="34" unit="0" unit_symbol="µm">30.04741947084144</grain_size>
        <cooling_rate dimension="32" unit="0" unit_symbol="K/s">171.0106294169949</cooling_rate>
        <a1 dimension="8" unit="1" unit_symbol="°C">695.74</a1>
        <a3 dimension="8" unit="1" unit_symbol="°C">817.09</a3>
        <cct_0.2_percent_proof_stress id="0">
            <sfDataTable name="Proof stress" type="0" columns="2" rows="13" version="12.1">
                <idTag>229##Default</idTag>
                <type>0</type>
                <columns>2</columns>
                <rows>13</rows>
                <columndata title="Temperaturrate" name="Abkühlrate" type="0" datatype="1" fffunit="2097152" unit_symbol="K/s" usage="1"/>
                <columndata title="Druck" name="0,2% Dehngrenze" type="0" datatype="1" fffunit="851971" unit_symbol="MPa" usage="2"/>
                <row nb="1">0.01;235</row>
                <row nb="2">0.02;200</row>
                <row nb="3">0.3;200</row>
                <row nb="4">3;218</row>
                <row nb="5">6;232</row>
                <row nb="6">10;262</row>
                <row nb="7">20;329</row>
                <row nb="8">30;381</row>
                <row nb="9">60;489</row>
                <row nb="10">75;527</row>
                <row nb="11">100;578</row>
                <row nb="12">150;651</row>
                <row nb="13">300;763</row>
            </sfDataTable>
        </cct_0.2_percent_proof_stress>
        <cct_tensile_stress id="1">
            <sfDataTable name="Tensile stress" type="0" columns="2" rows="13" version="12.1">
                <idTag>230##Default</idTag>
                <type>0</type>
                <columns>2</columns>
                <rows>13</rows>
                <columndata title="Temperaturrate" name="Abkühlrate" type="0" datatype="1" fffunit="2097152" unit_symbol="K/s" usage="1"/>
                <columndata title="Druck" name="Zugspannung" type="0" datatype="1" fffunit="851971" unit_symbol="MPa" usage="2"/>
                <row nb="1">0.01;435</row>
                <row nb="2">0.02;420</row>
                <row nb="3">0.3;420</row>
                <row nb="4">3;428</row>
                <row nb="5">6;436</row>
                <row nb="6">10;464</row>
                <row nb="7">20;532</row>
                <row nb="8">30;585</row>
                <row nb="9">60;696</row>
                <row nb="10">75;735</row>
                <row nb="11">100;787</row>
                <row nb="12">150;859</row>
                <row nb="13">300;958</row>
            </sfDataTable>
        </cct_tensile_stress>
        <cct_hardness id="2">
            <sfDataTable name="Hardness" type="0" columns="2" rows="13" version="12.1">
                <idTag>231##Default</idTag>
                <type>0</type>
                <columns>2</columns>
                <rows>13</rows>
                <columndata title="Temperaturrate" name="Abkühlrate" type="0" datatype="1" fffunit="2097152" unit_symbol="K/s" usage="1"/>
                <columndata title="Härte" name="Härte" type="0" datatype="1" fffunit="2424837" unit_symbol="HV" usage="2"/>
                <row nb="1">0.01;135</row>
                <row nb="2">0.02;146</row>
                <row nb="3">0.3;145.9999999999999</row>
                <row nb="4">3;148</row>
                <row nb="5">6;157</row>
                <row nb="6">10;169.9999999999999</row>
                <row nb="7">20;194.9999999999999</row>
                <row nb="8">30;214</row>
                <row nb="9">60;251.9999999999999</row>
                <row nb="10">75;265.9999999999999</row>
                <row nb="11">100;283.9999999999999</row>
                <row nb="12">150;310.9999999999998</row>
                <row nb="13">300;354.9999999999998</row>
            </sfDataTable>
        </cct_hardness>
        <phase_transformation_austenit>
            <youngs_modulus_table_peak_temperature_pairs>
                <table_peak_temperature_pair>
                    <peak_temperature dimension="8" unit="1" unit_symbol="°C">20.0</peak_temperature>
                    <table id="3">
                        <sfDataTable name="Young's modulus" type="0" columns="2" rows="8" version="12.1">
                            <idTag>50##Austenite</idTag>
                            <type>0</type>
                            <columns>2</columns>
                            <rows>8</rows>
                            <columndata title="Temperature" name="Temperatur" type="0" datatype="1" fffunit="524289" unit_symbol="°C" usage="1"/>
                            <columndata title="Stress" name="Elastizitätsmodul" type="0" datatype="1" fffunit="851971" unit_symbol="MPa" usage="2"/>
                            <row nb="1">25;199184.3443</row>
                            <row nb="2">200;183515.6791</row>
                            <row nb="3">400;165109.4629</row>
                            <row nb="4">600;146170.7985</row>
                            <row nb="5">800;126699.6854</row>
                            <row nb="6">1000;106696.1238</row>
                            <row nb="7">1200;86160.11396</row>
                            <row nb="8">1300;75692.44094</row>
                        </sfDataTable>
                    </table>
                </table_peak_temperature_pair>
            </youngs_modulus_table_peak_temperature_pairs>
            <youngs_modulus_table id="4">
                <sfDataTable name="Young's modulus" type="0" columns="2" rows="8" version="12.1">
                    <idTag>50##Austenite</idTag>
                    <type>0</type>
                    <columns>2</columns>
                    <rows>8</rows>
                    <columndata title="Temperature" name="Temperatur" type="0" datatype="1" fffunit="524289" unit_symbol="°C" usage="1"/>
                    <columndata title="Stress" name="Elastizitätsmodul" type="0" datatype="1" fffunit="851971" unit_symbol="MPa" usage="2"/>
                    <row nb="1">25;199184.3443</row>
                    <row nb="2">200;183515.6791</row>
                    <row nb="3">400;165109.4629</row>
                    <row nb="4">600;146170.7985</row>
                    <row nb="5">800;126699.6854</row>
                    <row nb="6">1000;106696.1238</row>
                    <row nb="7">1200;86160.11396</row>
                    <row nb="8">1300;75692.44094</row>
                </sfDataTable>
            </youngs_modulus_table>
            <transverse_contraction_table id="5">
                <sfDataTable name="Poisson's ratio" type="0" columns="2" rows="2" version="12.1">
                    <idTag>53##Austenite</idTag>
                    <type>0</type>
                    <columns>2</columns>
                    <rows>2</rows>
                    <columndata title="Temperature" name="Temperatur" type="0" datatype="1" fffunit="524289" unit_symbol="°C" usage="1"/>
                    <columndata title="Size of dimension one" name="Querkontraktion" type="0" datatype="1" fffunit="-1" unit_symbol="-" usage="2"/>
                    <row nb="1">25;0.2938706203</row>
                    <row nb="2">1300;0.369950834</row>
                </sfDataTable>
            </transverse_contraction_table>
            <thermal_expansion_table_peak_temperature_pairs>
                <table_peak_temperature_pair>
                    <peak_temperature dimension="8" unit="1" unit_symbol="°C">20.0</peak_temperature>
                    <table id="6">
                        <sfDataTable name="Thermal expansion coeff." type="0" columns="2" rows="6" version="12.1">
                            <idTag>56##Austenite</idTag>
                            <type>0</type>
                            <columns>2</columns>
                            <rows>6</rows>
                            <columndata title="Temperature" name="Temperatur" type="0" datatype="1" fffunit="524289" unit_symbol="°C" usage="1"/>
                            <columndata title="Thermal expansion" name="Wärmeausdehnung" type="0" datatype="1" fffunit="983041" unit_symbol="1/°C" usage="2"/>
                            <row nb="1">-100;0</row>
                            <row nb="2">-40;2.516e-05</row>
                            <row nb="3">20;2.516486833176395e-05</row>
                            <row nb="4">1250;2.539368160570647e-05</row>
                            <row nb="5">1466.85;2.54132911362734e-05</row>
                            <row nb="6">1517.14;0</row>
                        </sfDataTable>
                    </table>
                </table_peak_temperature_pair>
            </thermal_expansion_table_peak_temperature_pairs>
            <thermal_expansion_table id="7">
                <sfDataTable name="Thermal expansion coeff." type="0" columns="2" rows="6" version="12.1">
                    <idTag>56##Austenite</idTag>
                    <type>0</type>
                    <columns>2</columns>
                    <rows>6</rows>
                    <columndata title="Temperature" name="Temperatur" type="0" datatype="1" fffunit="524289" unit_symbol="°C" usage="1"/>
                    <columndata title="Thermal expansion" name="Wärmeausdehnung" type="0" datatype="1" fffunit="983041" unit_symbol="1/°C" usage="2"/>
                    <row nb="1">-100;0</row>
                    <row nb="2">-40;2.516e-05</row>
                    <row nb="3">20;2.516486833176395e-05</row>
                    <row nb="4">1250;2.539368160570647e-05</row>
                    <row nb="5">1466.85;2.54132911362734e-05</row>
                    <row nb="6">1517.14;0</row>
                </sfDataTable>
            </thermal_expansion_table>
            <density_table_peak_temperature_pairs>
                <table_peak_temperature_pair>
                    <peak_temperature dimension="8" unit="1" unit_symbol="°C">20.0</peak_temperature>
                    <table id="8">
                        <sfDataTable name="Density" type="0" columns="2" rows="2" version="12.1">
                            <idTag>59##Austenite</idTag>
                            <type>0</type>
                            <columns>2</columns>
                            <rows>2</rows>
                            <columndata title="Temperature" name="Temperatur" type="0" datatype="1" fffunit="524289" unit_symbol="°C" usage="1"/>
                            <columndata title="Density" name="Dichte" type="0" datatype="1" fffunit="720902" unit_symbol="g/cm³" usage="2"/>
                            <row nb="1">25;8.116470714</row>
                            <row nb="2">1300;7.397400129</row>
                        </sfDataTable>
                    </table>
                </table_peak_temperature_pair>
            </density_table_peak_temperature_pairs>
            <density_table id="9">
                <sfDataTable name="Density" type="0" columns="2" rows="2" version="12.1">
                    <idTag>59##Austenite</idTag>
                    <type>0</type>
                    <columns>2</columns>
                    <rows>2</rows>
                    <columndata title="Temperature" name="Temperatur" type="0" datatype="1" fffunit="524289" unit_symbol="°C" usage="1"/>
                    <columndata title="Density" name="Dichte" type="0" datatype="1" fffunit="720902" unit_symbol="g/cm³" usage="2"/>
                    <row nb="1">25;8.116470714</row>
                    <row nb="2">1300;7.397400129</row>
                </sfDataTable>
            </density_table>
            <molar_volume id="10">
                <sfDataTable name="Molar volume" type="0" columns="2" rows="27" version="12.1">
                    <idTag>203##Austenite</idTag>
                    <type>0</type>
                    <columns>2</columns>
                    <rows>27</rows>
                    <columndata title="Temperatur" name="Temperatur" type="0" datatype="1" fffunit="524289" unit_symbol="°C" usage="1"/>
                    <columndata title="Volumen" name="Volumen" type="0" datatype="1" fffunit="655361" unit_symbol="cm³" usage="2"/>
                    <row nb="1">25;6.842126004e-06</row>
                    <row nb="2">50;6.855039594e-06</row>
                    <row nb="3">100;6.880867181e-06</row>
                    <row nb="4">150;6.90669738e-06</row>
                    <row nb="5">200;6.932532672e-06</row>
                    <row nb="6">250;6.958375538e-06</row>
                    <row nb="7">300;6.984228459e-06</row>
                    <row nb="8">350;7.010093918e-06</row>
                    <row nb="9">400;7.035974395e-06</row>
                    <row nb="10">450;7.061872372e-06</row>
                    <row nb="11">500;7.087790331e-06</row>
                    <row nb="12">550;7.113730752e-06</row>
                    <row nb="13">600;7.139696134e-06</row>
                    <row nb="14">650;7.165688939e-06</row>
                    <row nb="15">700;7.191711655e-06</row>
                    <row nb="16">750;7.217766763e-06</row>
                    <row nb="17">800;7.243856746e-06</row>
                    <row nb="18">850;7.269984078e-06</row>
                    <row nb="19">900;7.296151255e-06</row>
                    <row nb="20">950;7.322360746e-06</row>
                    <row nb="21">1000;7.34861504e-06</row>
                    <row nb="22">1050;7.374916617e-06</row>
                    <row nb="23">1100;7.401267955e-06</row>
                    <row nb="24">1150;7.427671541e-06</row>
                    <row nb="25">1200;7.454129858e-06</row>
                    <row nb="26">1250;7.480645381e-06</row>
                    <row nb="27">1300;7.5072206e-06</row>
                </sfDataTable>
            </molar_volume>
            <thermal_conductivity_table_peak_temperature_pairs>
                <table_peak_temperature_pair>
                    <peak_temperature dimension="8" unit="1" unit_symbol="°C">20.0</peak_temperature>
                    <table id="11">
                        <sfDataTable name="Thermal conductivity" type="0" columns="2" rows="27" version="12.1">
                            <idTag>62##Austenite</idTag>
                            <type>0</type>
                            <columns>2</columns>
                            <rows>27</rows>
                            <columndata title="Temperatur" name="Temperatur" type="0" datatype="1" fffunit="524289" unit_symbol="°C" usage="1"/>
                            <columndata title="Wärmeleitfähigkeit" name="Wärmeleitfähigkeit" type="0" datatype="1" fffunit="917505" unit_symbol="W/(m·K)" usage="2"/>
                            <row nb="1">25;17.43583415</row>
                            <row nb="2">50;17.75165629</row>
                            <row nb="3">100;18.38123842</row>
                            <row nb="4">150;19.00879383</row>
                            <row nb="5">200;19.6348691</row>
                            <row nb="6">250;20.25980185</row>
                            <row nb="7">300;20.88381189</row>
                            <row nb="8">350;21.50704849</row>
                            <row nb="9">400;22.12961655</row>
                            <row nb="10">450;22.75159199</row>
                            <row nb="11">500;23.37303106</row>
                            <row nb="12">550;23.99397635</row>
                            <row nb="13">600;24.61446071</row>
                            <row nb="14">650;25.23450983</row>
                            <row nb="15">700;25.85414418</row>
                            <row nb="16">750;26.4733802</row>
                            <row nb="17">800;27.09223126</row>
                            <row nb="18">850;27.71070833</row>
                            <row nb="19">900;28.32882059</row>
                            <row nb="20">950;28.94657561</row>
                            <row nb="21">1000;29.56397985</row>
                            <row nb="22">1050;30.18103877</row>
                            <row nb="23">1100;30.797757</row>
                            <row nb="24">1150;31.41413858</row>
                            <row nb="25">1200;32.03018698</row>
                            <row nb="26">1250;32.64590517</row>
                            <row nb="27">1300;33.2612958</row>
                        </sfDataTable>
                    </table>
                </table_peak_temperature_pair>
            </thermal_conductivity_table_peak_temperature_pairs>
            <thermal_conductivity_table id="12">
                <sfDataTable name="Thermal conductivity" type="0" columns="2" rows="27" version="12.1">
                    <idTag>62##Austenite</idTag>
                    <type>0</type>
                    <columns>2</columns>
                    <rows>27</rows>
                    <columndata title="Temperatur" name="Temperatur" type="0" datatype="1" fffunit="524289" unit_symbol="°C" usage="1"/>
                    <columndata title="Wärmeleitfähigkeit" name="Wärmeleitfähigkeit" type="0" datatype="1" fffunit="917505" unit_symbol="W/(m·K)" usage="2"/>
                    <row nb="1">25;17.43583415</row>
                    <row nb="2">50;17.75165629</row>
                    <row nb="3">100;18.38123842</row>
                    <row nb="4">150;19.00879383</row>
                    <row nb="5">200;19.6348691</row>
                    <row nb="6">250;20.25980185</row>
                    <row nb="7">300;20.88381189</row>
                    <row nb="8">350;21.50704849</row>
                    <row nb="9">400;22.12961655</row>
                    <row nb="10">450;22.75159199</row>
                    <row nb="11">500;23.37303106</row>
                    <row nb="12">550;23.99397635</row>
                    <row nb="13">600;24.61446071</row>
                    <row nb="14">650;25.23450983</row>
                    <row nb="15">700;25.85414418</row>
                    <row nb="16">750;26.4733802</row>
                    <row nb="17">800;27.09223126</row>
                    <row nb="18">850;27.71070833</row>
                    <row nb="19">900;28.32882059</row>
                    <row nb="20">950;28.94657561</row>
                    <row nb="21">1000;29.56397985</row>
                    <row nb="22">1050;30.18103877</row>
                    <row nb="23">1100;30.797757</row>
                    <row nb="24">1150;31.41413858</row>
                    <row nb="25">1200;32.03018698</row>
                    <row nb="26">1250;32.64590517</row>
                    <row nb="27">1300;33.2612958</row>
                </sfDataTable>
            </thermal_conductivity_table>
            <specific_heat_capacity_table_peak_temperature_pairs>
                <table_peak_temperature_pair>
                    <peak_temperature dimension="8" unit="1" unit_symbol="°C">20.0</peak_temperature>
                    <table id="13">
                        <sfDataTable name="Specific heat capacity" type="0" columns="2" rows="27" version="12.1">
                            <idTag>65##Austenite</idTag>
                            <type>0</type>
                            <columns>2</columns>
                            <rows>27</rows>
                            <columndata title="Temperatur" name="Temperatur" type="0" datatype="1" fffunit="524289" unit_symbol="°C" usage="1"/>
                            <columndata title="Wärmekapazität" name="Wärmekapazität" type="0" datatype="1" fffunit="1179648" unit_symbol="kJ/(kg·K)" usage="2"/>
                            <row nb="1">25;0.45203</row>
                            <row nb="2">50;0.46017</row>
                            <row nb="3">100;0.4739</row>
                            <row nb="4">150;0.48548</row>
                            <row nb="5">200;0.49577</row>
                            <row nb="6">250;0.50522</row>
                            <row nb="7">300;0.51414</row>
                            <row nb="8">350;0.52267</row>
                            <row nb="9">400;0.53095</row>
                            <row nb="10">450;0.53904</row>
                            <row nb="11">500;0.547</row>
                            <row nb="12">550;0.55484</row>
                            <row nb="13">600;0.56264</row>
                            <row nb="14">650;0.57038</row>
                            <row nb="15">700;0.57809</row>
                            <row nb="16">750;0.58578</row>
                            <row nb="17">800;0.59346</row>
                            <row nb="18">850;0.6011300000000001</row>
                            <row nb="19">900;0.6088</row>
                            <row nb="20">950;0.61648</row>
                            <row nb="21">1000;0.62417</row>
                            <row nb="22">1050;0.63187</row>
                            <row nb="23">1100;0.6395999999999999</row>
                            <row nb="24">1150;0.64735</row>
                            <row nb="25">1200;0.65511</row>
                            <row nb="26">1250;0.66291</row>
                            <row nb="27">1300;0.67086</row>
                        </sfDataTable>
                    </table>
                </table_peak_temperature_pair>
            </specific_heat_capacity_table_peak_temperature_pairs>
            <specific_heat_capacity_table id="14">
                <sfDataTable name="Specific heat capacity" type="0" columns="2" rows="27" version="12.1">
                    <idTag>65##Austenite</idTag>
                    <type>0</type>
                    <columns>2</columns>
                    <rows>27</rows>
                    <columndata title="Temperatur" name="Temperatur" type="0" datatype="1" fffunit="524289" unit_symbol="°C" usage="1"/>
                    <columndata title="Wärmekapazität" name="Wärmekapazität" type="0" datatype="1" fffunit="1179648" unit_symbol="kJ/(kg·K)" usage="2"/>
                    <row nb="1">25;0.45203</row>
                    <row nb="2">50;0.46017</row>
                    <row nb="3">100;0.4739</row>
                    <row nb="4">150;0.48548</row>
                    <row nb="5">200;0.49577</row>
                    <row nb="6">250;0.50522</row>
                    <row nb="7">300;0.51414</row>
                    <row nb="8">350;0.52267</row>
                    <row nb="9">400;0.53095</row>
                    <row nb="10">450;0.53904</row>
                    <row nb="11">500;0.547</row>
                    <row nb="12">550;0.55484</row>
                    <row nb="13">600;0.56264</row>
                    <row nb="14">650;0.57038</row>
                    <row nb="15">700;0.57809</row>
                    <row nb="16">750;0.58578</row>
                    <row nb="17">800;0.59346</row>
                    <row nb="18">850;0.6011300000000001</row>
                    <row nb="19">900;0.6088</row>
                    <row nb="20">950;0.61648</row>
                    <row nb="21">1000;0.62417</row>
                    <row nb="22">1050;0.63187</row>
                    <row nb="23">1100;0.6395999999999999</row>
                    <row nb="24">1150;0.64735</row>
                    <row nb="25">1200;0.65511</row>
                    <row nb="26">1250;0.66291</row>
                    <row nb="27">1300;0.67086</row>
                </sfDataTable>
            </specific_heat_capacity_table>
            <electrical_resisitivity_table id="15">
                <sfDataTable name="Electrical resistivity" type="0" columns="2" rows="53" version="12.1">
                    <idTag>68##Austenite</idTag>
                    <type>0</type>
                    <columns>2</columns>
                    <rows>53</rows>
                    <columndata title="Temperature" name="Temperature" type="0" datatype="1" fffunit="524289" unit_symbol="°C" usage="1"/>
                    <columndata title="Electrical resistivity" name="Electrical resistivity" type="0" datatype="1" fffunit="2818048" unit_symbol="Ω·m" usage="2"/>
                    <row nb="1">20;2.33506494e-07</row>
                    <row nb="2">38.09523810000002;2.43506494e-07</row>
                    <row nb="3">51.42857142999998;2.5e-07</row>
                    <row nb="4">68.57142856999997;2.5974026e-07</row>
                    <row nb="5">93.33333333000002;2.75974026e-07</row>
                    <row nb="6">121.9047619;2.92207792e-07</row>
                    <row nb="7">163.8095238;3.18181818e-07</row>
                    <row nb="8">186.6666667;3.37662338e-07</row>
                    <row nb="9">205.7142857;3.50649351e-07</row>
                    <row nb="10">241.9047619;3.76623377e-07</row>
                    <row nb="11">266.6666667000001;3.96103896e-07</row>
                    <row nb="12">300.9523809999999;4.22077922e-07</row>
                    <row nb="13">323.8095238;4.41558442e-07</row>
                    <row nb="14">340.9523809999999;4.57792208e-07</row>
                    <row nb="15">371.4285714;4.83766234e-07</row>
                    <row nb="16">384.7619048;4.96753247e-07</row>
                    <row nb="17">403.8095238;5.16233766e-07</row>
                    <row nb="18">422.8571429;5.357142860000001e-07</row>
                    <row nb="19">447.6190476;5.61688312e-07</row>
                    <row nb="20">464.7619048;5.779220779999999e-07</row>
                    <row nb="21">493.3333332999999;6.07142857e-07</row>
                    <row nb="22">516.1904762;6.331168830000001e-07</row>
                    <row nb="23">540.9523809999999;6.59090909e-07</row>
                    <row nb="24">563.8095238;6.915584420000001e-07</row>
                    <row nb="25">584.7619048;7.207792210000001e-07</row>
                    <row nb="26">615.2380952;7.597402599999999e-07</row>
                    <row nb="27">636.1904762;7.88961039e-07</row>
                    <row nb="28">647.6190476;8.051948049999999e-07</row>
                    <row nb="29">672.3809524;8.40909091e-07</row>
                    <row nb="30">681.9047619;8.571428570000001e-07</row>
                    <row nb="31">699.0476190000001;8.86363636e-07</row>
                    <row nb="32">714.2857143;9.09090909e-07</row>
                    <row nb="33">735.2380952;9.48051948e-07</row>
                    <row nb="34">740.9523809999999;9.577922080000001e-07</row>
                    <row nb="35">744.7619048;9.70779221e-07</row>
                    <row nb="36">748.5714286;9.837662339999999e-07</row>
                    <row nb="37">752.3809524;9.902597400000001e-07</row>
                    <row nb="38">758.0952380999998;1.00974026e-06</row>
                    <row nb="39">763.8095238;1.022727273e-06</row>
                    <row nb="40">775.2380952;1.042207792e-06</row>
                    <row nb="41">786.6666667000001;1.055194805e-06</row>
                    <row nb="42">801.9047618999999;1.064935065e-06</row>
                    <row nb="43">817.1428571;1.074675325e-06</row>
                    <row nb="44">832.3809524;1.081168831e-06</row>
                    <row nb="45">847.6190476;1.084415584e-06</row>
                    <row nb="46">870.4761905000001;1.094155844e-06</row>
                    <row nb="47">895.2380952;1.103896104e-06</row>
                    <row nb="48">920.0000000000001;1.113636364e-06</row>
                    <row nb="49">940.9523809999999;1.12012987e-06</row>
                    <row nb="50">960.0000000000001;1.126623377e-06</row>
                    <row nb="51">980.9523809999999;1.133116883e-06</row>
                    <row nb="52">1000;1.13961039e-06</row>
                    <row nb="53">1022.857143;1.146103896e-06</row>
                </sfDataTable>
            </electrical_resisitivity_table>
            <flow_curves_used_approach>0</flow_curves_used_approach>
            <flow_curves_table_approach>
                <usePeakTemperatures>false</usePeakTemperatures>
                <temperatures count="14">
                    <temperature dimension="8" unit="1" unit_symbol="°C">25.0</temperature>
                    <temperature dimension="8" unit="1" unit_symbol="°C">100.0</temperature>
                    <temperature dimension="8" unit="1" unit_symbol="°C">200.0</temperature>
                    <temperature dimension="8" unit="1" unit_symbol="°C">300.0</temperature>
                    <temperature dimension="8" unit="1" unit_symbol="°C">400.0</temperature>
                    <temperature dimension="8" unit="1" unit_symbol="°C">500.0</temperature>
                    <temperature dimension="8" unit="1" unit_symbol="°C">600.0</temperature>
                    <temperature dimension="8" unit="1" unit_symbol="°C">700.0</temperature>
                    <temperature dimension="8" unit="1" unit_symbol="°C">800.0</temperature>
                    <temperature dimension="8" unit="1" unit_symbol="°C">900.0</temperature>
                    <temperature dimension="8" unit="1" unit_symbol="°C">1000.0</temperature>
                    <temperature dimension="8" unit="1" unit_symbol="°C">1100.0</temperature>
                    <temperature dimension="8" unit="1" unit_symbol="°C">1200.0</temperature>
                    <temperature dimension="8" unit="1" unit_symbol="°C">1300.0</temperature>
                </temperatures>
                <strain_rates count="1">
                    <strain_rate dimension="24" unit="0" unit_symbol="1/s">0.01</strain_rate>
                </strain_rates>
                <flow_curve_table>
                    <fc_temperature dimension="8" unit="1" unit_symbol="°C">25.0</fc_temperature>
                    <fc_strainrate dimension="24" unit="0" unit_symbol="1/s">0.01</fc_strainrate>
                    <sfDataTable name="T=25.0 °C,phi_p=0.01 1/s" type="0" columns="2" rows="17" version="12.1">
                        <idTag>0</idTag>
                        <type>0</type>
                        <columns>2</columns>
                        <rows>17</rows>
                        <columndata type="0" datatype="1" fffunit="-1" unit_symbol="-" usage="1"/>
                        <columndata type="0" datatype="1" fffunit="851971" unit_symbol="MPa" usage="2"/>
                        <row nb="1">0;214.348</row>
                        <row nb="2">0.02;369.0201</row>
                        <row nb="3">0.04;434.5825</row>
                        <row nb="4">0.06;478.2088</row>
                        <row nb="5">0.08;511.7931</row>
                        <row nb="6">0.1;539.4589999999999</row>
                        <row nb="7">0.12;563.1703</row>
                        <row nb="8">0.14;584.0291</row>
                        <row nb="9">0.16;602.7214</row>
                        <row nb="10">0.18;619.7051</row>
                        <row nb="11">0.2;635.3026</row>
                        <row nb="12">0.22;649.7501999999999</row>
                        <row nb="13">0.26;675.8703</row>
                        <row nb="14">0.3;699.0785</row>
                        <row nb="15">0.4;748.1744</row>
                        <row nb="16">0.6;823.2811</row>
                        <row nb="17">1;928.7291</row>
                    </sfDataTable>
                </flow_curve_table>
                <flow_curve_table>
                    <fc_temperature dimension="8" unit="1" unit_symbol="°C">100.0</fc_temperature>
                    <fc_strainrate dimension="24" unit="0" unit_symbol="1/s">0.01</fc_strainrate>
                    <sfDataTable name="T=100.0 °C,phi_p=0.01 1/s" type="0" columns="2" rows="17" version="12.1">
                        <idTag>1</idTag>
                        <type>0</type>
                        <columns>2</columns>
                        <rows>17</rows>
                        <columndata type="0" datatype="1" fffunit="-1" unit_symbol="-" usage="1"/>
                        <columndata type="0" datatype="1" fffunit="851971" unit_symbol="MPa" usage="2"/>
                        <row nb="1">0;171.326</row>
                        <row nb="2">0.02;310.9179</row>
                        <row nb="3">0.04;372.0137</row>
                        <row nb="4">0.06;413.1762</row>
                        <row nb="5">0.08;445.1151</row>
                        <row nb="6">0.1;471.5793</row>
                        <row nb="7">0.12;494.3661</row>
                        <row nb="8">0.14;514.4888999999998</row>
                        <row nb="9">0.16;532.5809000000002</row>
                        <row nb="10">0.18;549.0666</row>
                        <row nb="11">0.2;564.2455</row>
                        <row nb="12">0.22;578.3376</row>
                        <row nb="13">0.26;603.8918</row>
                        <row nb="14">0.3;626.678</row>
                        <row nb="15">0.4;675.1206</row>
                        <row nb="16">0.6;749.8212</row>
                        <row nb="17">1;855.8096</row>
                    </sfDataTable>
                </flow_curve_table>
                <flow_curve_table>
                    <fc_temperature dimension="8" unit="1" unit_symbol="°C">200.0</fc_temperature>
                    <fc_strainrate dimension="24" unit="0" unit_symbol="1/s">0.01</fc_strainrate>
                    <sfDataTable name="T=200.0 °C,phi_p=0.01 1/s" type="0" columns="2" rows="17" version="12.1">
                        <idTag>2</idTag>
                        <type>0</type>
                        <columns>2</columns>
                        <rows>17</rows>
                        <columndata type="0" datatype="1" fffunit="-1" unit_symbol="-" usage="1"/>
                        <columndata type="0" datatype="1" fffunit="851971" unit_symbol="MPa" usage="2"/>
                        <row nb="1">0;141.398</row>
                        <row nb="2">0.02;267.1909</row>
                        <row nb="3">0.04;323.6085</row>
                        <row nb="4">0.06;361.9826</row>
                        <row nb="5">0.08;391.9386</row>
                        <row nb="6">0.1;416.8712</row>
                        <row nb="7">0.12;438.4155</row>
                        <row nb="8">0.14;457.4973</row>
                        <row nb="9">0.16;474.6967</row>
                        <row nb="10">0.18;490.4037</row>
                        <row nb="11">0.2;504.8939</row>
                        <row nb="12">0.22;518.3703000000002</row>
                        <row nb="13">0.26;542.8647</row>
                        <row nb="14">0.3;564.7652</row>
                        <row nb="15">0.4;611.5026</row>
                        <row nb="16">0.6;684.0157</row>
                        <row nb="17">1;787.7353000000001</row>
                    </sfDataTable>
                </flow_curve_table>
                <flow_curve_table>
                    <fc_temperature dimension="8" unit="1" unit_symbol="°C">300.0</fc_temperature>
                    <fc_strainrate dimension="24" unit="0" unit_symbol="1/s">0.01</fc_strainrate>
                    <sfDataTable name="T=300.0 °C,phi_p=0.01 1/s" type="0" columns="2" rows="17" version="12.1">
                        <idTag>3</idTag>
                        <type>0</type>
                        <columns>2</columns>
                        <rows>17</rows>
                        <columndata type="0" datatype="1" fffunit="-1" unit_symbol="-" usage="1"/>
                        <columndata type="0" datatype="1" fffunit="851971" unit_symbol="MPa" usage="2"/>
                        <row nb="1">0;124.504</row>
                        <row nb="2">0.02;239.5566</row>
                        <row nb="3">0.04;291.7214</row>
                        <row nb="4">0.06;327.3541</row>
                        <row nb="5">0.08;355.2454</row>
                        <row nb="6">0.1;378.506</row>
                        <row nb="7">0.12;398.6374</row>
                        <row nb="8">0.14;416.4913</row>
                        <row nb="9">0.16;432.6022</row>
                        <row nb="10">0.18;447.3295</row>
                        <row nb="11">0.2;460.9278</row>
                        <row nb="12">0.22;473.5848</row>
                        <row nb="13">0.26;496.6134</row>
                        <row nb="14">0.3;517.2285000000002</row>
                        <row nb="15">0.4;561.2975</row>
                        <row nb="16">0.6;629.8579999999999</row>
                        <row nb="17">1;728.2786</row>
                    </sfDataTable>
                </flow_curve_table>
                <flow_curve_table>
                    <fc_temperature dimension="8" unit="1" unit_symbol="°C">400.0</fc_temperature>
                    <fc_strainrate dimension="24" unit="0" unit_symbol="1/s">0.01</fc_strainrate>
                    <sfDataTable name="T=400.0 °C,phi_p=0.01 1/s" type="0" columns="2" rows="17" version="12.1">
                        <idTag>4</idTag>
                        <type>0</type>
                        <columns>2</columns>
                        <rows>17</rows>
                        <columndata type="0" datatype="1" fffunit="-1" unit_symbol="-" usage="1"/>
                        <columndata type="0" datatype="1" fffunit="851971" unit_symbol="MPa" usage="2"/>
                        <row nb="1">0;113.712</row>
                        <row nb="2">0.02;218.9212</row>
                        <row nb="3">0.04;266.64</row>
                        <row nb="4">0.06;299.2403</row>
                        <row nb="5">0.08;324.7602</row>
                        <row nb="6">0.1;346.0445</row>
                        <row nb="7">0.12;364.4664</row>
                        <row nb="8">0.14;380.805</row>
                        <row nb="9">0.16;395.549</row>
                        <row nb="10">0.18;409.0273</row>
                        <row nb="11">0.2;421.4727</row>
                        <row nb="12">0.22;433.0568</row>
                        <row nb="13">0.26;454.1342</row>
                        <row nb="14">0.3;473.0033</row>
                        <row nb="15">0.4;513.3420999999998</row>
                        <row nb="16">0.6;576.105</row>
                        <row nb="17">1;666.2136</row>
                    </sfDataTable>
                </flow_curve_table>
                <flow_curve_table>
                    <fc_temperature dimension="8" unit="1" unit_symbol="°C">500.0</fc_temperature>
                    <fc_strainrate dimension="24" unit="0" unit_symbol="1/s">0.01</fc_strainrate>
                    <sfDataTable name="T=500.0 °C,phi_p=0.01 1/s" type="0" columns="2" rows="17" version="12.1">
                        <idTag>5</idTag>
                        <type>0</type>
                        <columns>2</columns>
                        <rows>17</rows>
                        <columndata type="0" datatype="1" fffunit="-1" unit_symbol="-" usage="1"/>
                        <columndata type="0" datatype="1" fffunit="851971" unit_symbol="MPa" usage="2"/>
                        <row nb="1">0;106.242</row>
                        <row nb="2">0.02;205.1407</row>
                        <row nb="3">0.04;246.5826</row>
                        <row nb="4">0.06;275.191</row>
                        <row nb="5">0.08;297.6617</row>
                        <row nb="6">0.1;316.4295</row>
                        <row nb="7">0.12;332.6835</row>
                        <row nb="8">0.14;347.103</row>
                        <row nb="9">0.16;360.1159</row>
                        <row nb="10">0.18;372.0109</row>
                        <row nb="11">0.2;382.9929</row>
                        <row nb="12">0.22;393.2133</row>
                        <row nb="13">0.26;411.8037</row>
                        <row nb="14">0.3;428.4393</row>
                        <row nb="15">0.4;463.9771</row>
                        <row nb="16">0.6;519.1903</row>
                        <row nb="17">1;598.282</row>
                    </sfDataTable>
                </flow_curve_table>
                <flow_curve_table>
                    <fc_temperature dimension="8" unit="1" unit_symbol="°C">600.0</fc_temperature>
                    <fc_strainrate dimension="24" unit="0" unit_symbol="1/s">0.01</fc_strainrate>
                    <sfDataTable name="T=600.0 °C,phi_p=0.01 1/s" type="0" columns="2" rows="17" version="12.1">
                        <idTag>6</idTag>
                        <type>0</type>
                        <columns>2</columns>
                        <rows>17</rows>
                        <columndata type="0" datatype="1" fffunit="-1" unit_symbol="-" usage="1"/>
                        <columndata type="0" datatype="1" fffunit="851971" unit_symbol="MPa" usage="2"/>
                        <row nb="1">0;57.7414</row>
                        <row nb="2">0.02;113.2527</row>
                        <row nb="3">0.04;136.3353</row>
                        <row nb="4">0.06;152.3575</row>
                        <row nb="5">0.08;164.9784</row>
                        <row nb="6">0.1;175.5396</row>
                        <row nb="7">0.12;184.6991</row>
                        <row nb="8">0.14;192.834</row>
                        <row nb="9">0.16;200.1821</row>
                        <row nb="10">0.18;206.9042</row>
                        <row nb="11">0.2;213.1146</row>
                        <row nb="12">0.22;218.8978</row>
                        <row nb="13">0.26;229.4253</row>
                        <row nb="14">0.3;238.8543</row>
                        <row nb="15">0.4;259.0216</row>
                        <row nb="16">0.6;290.4147</row>
                        <row nb="17">1;335.4952</row>
                    </sfDataTable>
                </flow_curve_table>
                <flow_curve_table>
                    <fc_temperature dimension="8" unit="1" unit_symbol="°C">700.0</fc_temperature>
                    <fc_strainrate dimension="24" unit="0" unit_symbol="1/s">0.01</fc_strainrate>
                    <sfDataTable name="T=700.0 °C,phi_p=0.01 1/s" type="0" columns="2" rows="17" version="12.1">
                        <idTag>7</idTag>
                        <type>0</type>
                        <columns>2</columns>
                        <rows>17</rows>
                        <columndata type="0" datatype="1" fffunit="-1" unit_symbol="-" usage="1"/>
                        <columndata type="0" datatype="1" fffunit="851971" unit_symbol="MPa" usage="2"/>
                        <row nb="1">0;54.2249</row>
                        <row nb="2">0.02;101.3667</row>
                        <row nb="3">0.04;120.4256</row>
                        <row nb="4">0.06;133.517</row>
                        <row nb="5">0.08;143.7598</row>
                        <row nb="6">0.1;152.2878</row>
                        <row nb="7">0.12;159.6544</row>
                        <row nb="8">0.14;166.175</row>
                        <row nb="9">0.16;172.0481</row>
                        <row nb="10">0.18;177.4074</row>
                        <row nb="11">0.2;182.3477</row>
                        <row nb="12">0.22;186.9389</row>
                        <row nb="13">0.26;195.2746</row>
                        <row nb="14">0.3;202.7173</row>
                        <row nb="15">0.4;218.5672</row>
                        <row nb="16">0.6;243.0673</row>
                        <row nb="17">1;240.6666</row>
                    </sfDataTable>
                </flow_curve_table>
                <flow_curve_table>
                    <fc_temperature dimension="8" unit="1" unit_symbol="°C">800.0</fc_temperature>
                    <fc_strainrate dimension="24" unit="0" unit_symbol="1/s">0.01</fc_strainrate>
                    <sfDataTable name="T=800.0 °C,phi_p=0.01 1/s" type="0" columns="2" rows="17" version="12.1">
                        <idTag>8</idTag>
                        <type>0</type>
                        <columns>2</columns>
                        <rows>17</rows>
                        <columndata type="0" datatype="1" fffunit="-1" unit_symbol="-" usage="1"/>
                        <columndata type="0" datatype="1" fffunit="851971" unit_symbol="MPa" usage="2"/>
                        <row nb="1">0;51.4551</row>
                        <row nb="2">0.02;90.3403</row>
                        <row nb="3">0.04;105.4955</row>
                        <row nb="4">0.06;115.7635</row>
                        <row nb="5">0.08;123.7264</row>
                        <row nb="6">0.1;130.3126</row>
                        <row nb="7">0.12;135.9721</row>
                        <row nb="8">0.14;140.9598</row>
                        <row nb="9">0.16;145.4353</row>
                        <row nb="10">0.18;149.506</row>
                        <row nb="11">0.2;153.2475</row>
                        <row nb="12">0.22;154.1208</row>
                        <row nb="13">0.26;153.242</row>
                        <row nb="14">0.3;152.2471</row>
                        <row nb="15">0.4;149.6208</row>
                        <row nb="16">0.6;144.9402</row>
                        <row nb="17">1;138.2072</row>
                    </sfDataTable>
                </flow_curve_table>
                <flow_curve_table>
                    <fc_temperature dimension="8" unit="1" unit_symbol="°C">900.0</fc_temperature>
                    <fc_strainrate dimension="24" unit="0" unit_symbol="1/s">0.01</fc_strainrate>
                    <sfDataTable name="T=900.0 °C,phi_p=0.01 1/s" type="0" columns="2" rows="17" version="12.1">
                        <idTag>9</idTag>
                        <type>0</type>
                        <columns>2</columns>
                        <rows>17</rows>
                        <columndata type="0" datatype="1" fffunit="-1" unit_symbol="-" usage="1"/>
                        <columndata type="0" datatype="1" fffunit="851971" unit_symbol="MPa" usage="2"/>
                        <row nb="1">0;49.2178</row>
                        <row nb="2">0.02;79.99290000000001</row>
                        <row nb="3">0.04;90.1841</row>
                        <row nb="4">0.06;90.1794</row>
                        <row nb="5">0.08;90.16670000000001</row>
                        <row nb="6">0.1;90.1405</row>
                        <row nb="7">0.12;90.0943</row>
                        <row nb="8">0.14;90.0224</row>
                        <row nb="9">0.16;89.9109</row>
                        <row nb="10">0.18;89.7616</row>
                        <row nb="11">0.2;89.5759</row>
                        <row nb="12">0.22;89.3612</row>
                        <row nb="13">0.26;88.8626</row>
                        <row nb="14">0.3;88.27419999999999</row>
                        <row nb="15">0.4;86.75360000000001</row>
                        <row nb="16">0.6;84.0472</row>
                        <row nb="17">1;80.1344</row>
                    </sfDataTable>
                </flow_curve_table>
                <flow_curve_table>
                    <fc_temperature dimension="8" unit="1" unit_symbol="°C">1000.0</fc_temperature>
                    <fc_strainrate dimension="24" unit="0" unit_symbol="1/s">0.01</fc_strainrate>
                    <sfDataTable name="T=1000.0 °C,phi_p=0.01 1/s" type="0" columns="2" rows="17" version="12.1">
                        <idTag>10</idTag>
                        <type>0</type>
                        <columns>2</columns>
                        <rows>17</rows>
                        <columndata type="0" datatype="1" fffunit="-1" unit_symbol="-" usage="1"/>
                        <columndata type="0" datatype="1" fffunit="851971" unit_symbol="MPa" usage="2"/>
                        <row nb="1">0;47.3734</row>
                        <row nb="2">0.02;54.194</row>
                        <row nb="3">0.04;54.1934</row>
                        <row nb="4">0.06;54.1905</row>
                        <row nb="5">0.08;54.1829</row>
                        <row nb="6">0.1;54.167</row>
                        <row nb="7">0.12;54.1393</row>
                        <row nb="8">0.14;54.0961</row>
                        <row nb="9">0.16;54.035</row>
                        <row nb="10">0.18;53.948</row>
                        <row nb="11">0.2;53.8296</row>
                        <row nb="12">0.22;53.6904</row>
                        <row nb="13">0.26;53.3739</row>
                        <row nb="14">0.3;53.0548</row>
                        <row nb="15">0.4;52.1239</row>
                        <row nb="16">0.6;50.4472</row>
                        <row nb="17">1;48.1317</row>
                    </sfDataTable>
                </flow_curve_table>
                <flow_curve_table>
                    <fc_temperature dimension="8" unit="1" unit_symbol="°C">1100.0</fc_temperature>
                    <fc_strainrate dimension="24" unit="0" unit_symbol="1/s">0.01</fc_strainrate>
                    <sfDataTable name="T=1100.0 °C,phi_p=0.01 1/s" type="0" columns="2" rows="17" version="12.1">
                        <idTag>11</idTag>
                        <type>0</type>
                        <columns>2</columns>
                        <rows>17</rows>
                        <columndata type="0" datatype="1" fffunit="-1" unit_symbol="-" usage="1"/>
                        <columndata type="0" datatype="1" fffunit="851971" unit_symbol="MPa" usage="2"/>
                        <row nb="1">0;33.6514</row>
                        <row nb="2">0.02;33.6514</row>
                        <row nb="3">0.04;33.6509</row>
                        <row nb="4">0.06;33.6489</row>
                        <row nb="5">0.08;33.6435</row>
                        <row nb="6">0.1;33.6323</row>
                        <row nb="7">0.12;33.6124</row>
                        <row nb="8">0.14;33.5811</row>
                        <row nb="9">0.16;33.5359</row>
                        <row nb="10">0.18;33.4771</row>
                        <row nb="11">0.2;33.4049</row>
                        <row nb="12">0.22;33.3224</row>
                        <row nb="13">0.26;33.1443</row>
                        <row nb="14">0.3;32.9579</row>
                        <row nb="15">0.4;32.3128</row>
                        <row nb="16">0.6;31.2813</row>
                        <row nb="17">1;29.8904</row>
                    </sfDataTable>
                </flow_curve_table>
                <flow_curve_table>
                    <fc_temperature dimension="8" unit="1" unit_symbol="°C">1200.0</fc_temperature>
                    <fc_strainrate dimension="24" unit="0" unit_symbol="1/s">0.01</fc_strainrate>
                    <sfDataTable name="T=1200.0 °C,phi_p=0.01 1/s" type="0" columns="2" rows="17" version="12.1">
                        <idTag>12</idTag>
                        <type>0</type>
                        <columns>2</columns>
                        <rows>17</rows>
                        <columndata type="0" datatype="1" fffunit="-1" unit_symbol="-" usage="1"/>
                        <columndata type="0" datatype="1" fffunit="851971" unit_symbol="MPa" usage="2"/>
                        <row nb="1">0;21.3623</row>
                        <row nb="2">0.02;21.3623</row>
                        <row nb="3">0.04;21.3619</row>
                        <row nb="4">0.06;21.3605</row>
                        <row nb="5">0.08;21.3567</row>
[...]
                        <rows>17</rows>
                        <columndata type="0" datatype="1" fffunit="-1" unit_symbol="-" usage="1"/>
                        <columndata type="0" datatype="1" fffunit="851971" unit_symbol="MPa" usage="2"/>
                        <row nb="1">0;33.953</row>
                        <row nb="2">0.02;33.9527</row>
                        <row nb="3">0.04;33.9481</row>
                        <row nb="4">0.06;33.9284</row>
                        <row nb="5">0.08;33.8783</row>
                        <row nb="6">0.1;33.7848</row>
                        <row nb="7">0.12;33.6477</row>
                        <row nb="8">0.14;33.4838</row>
                        <row nb="9">0.16;33.3183</row>
                        <row nb="10">0.18;33.172</row>
                        <row nb="11">0.2;33.0534</row>
                        <row nb="12">0.22;32.8927</row>
                        <row nb="13">0.26;32.4896</row>
                        <row nb="14">0.3;32.2149</row>
                        <row nb="15">0.4;31.5927</row>
                        <row nb="16">0.6;30.6971</row>
                        <row nb="17">1;29.4543</row>
                    </sfDataTable>
                </flow_curve_table>
                <flow_curve_table>
                    <fc_temperature dimension="8" unit="1" unit_symbol="°C">1000.0</fc_temperature>
                    <fc_strainrate dimension="24" unit="0" unit_symbol="1/s">0.01</fc_strainrate>
                    <sfDataTable name="T=1000.0 °C,phi_p=0.01 1/s" type="0" columns="2" rows="17" version="12.1">
                        <idTag>10</idTag>
                        <type>0</type>
                        <columns>2</columns>
                        <rows>17</rows>
                        <columndata type="0" datatype="1" fffunit="-1" unit_symbol="-" usage="1"/>
                        <columndata type="0" datatype="1" fffunit="851971" unit_symbol="MPa" usage="2"/>
                        <row nb="1">0;16.613</row>
                        <row nb="2">0.02;16.6129</row>
                        <row nb="3">0.04;16.611</row>
                        <row nb="4">0.06;16.603</row>
                        <row nb="5">0.08;16.582</row>
                        <row nb="6">0.1;16.5439</row>
                        <row nb="7">0.12;16.4901</row>
                        <row nb="8">0.14;16.4217</row>
                        <row nb="9">0.16;16.3451</row>
                        <row nb="10">0.18;16.2659</row>
                        <row nb="11">0.2;16.1868</row>
                        <row nb="12">0.22;16.1082</row>
                        <row nb="13">0.26;15.9558</row>
                        <row nb="14">0.3;15.8178</row>
                        <row nb="15">0.4;15.5188</row>
                        <row nb="16">0.6;15.0716</row>
                        <row nb="17">1;14.4963</row>
                    </sfDataTable>
                </flow_curve_table>
                <flow_curve_table>
                    <fc_temperature dimension="8" unit="1" unit_symbol="°C">1100.0</fc_temperature>
                    <fc_strainrate dimension="24" unit="0" unit_symbol="1/s">0.01</fc_strainrate>
                    <sfDataTable name="T=1100.0 °C,phi_p=0.01 1/s" type="0" columns="2" rows="17" version="12.1">
                        <idTag>11</idTag>
                        <type>0</type>
                        <columns>2</columns>
                        <rows>17</rows>
                        <columndata type="0" datatype="1" fffunit="-1" unit_symbol="-" usage="1"/>
                        <columndata type="0" datatype="1" fffunit="851971" unit_symbol="MPa" usage="2"/>
                        <row nb="1">0;8.7668</row>
                        <row nb="2">0.02;8.7667</row>
                        <row nb="3">0.04;8.765700000000001</row>
                        <row nb="4">0.06;8.761100000000001</row>
                        <row nb="5">0.08;8.7499</row>
                        <row nb="6">0.1;8.73</row>
                        <row nb="7">0.12;8.7029</row>
                        <row nb="8">0.14;8.6645</row>
                        <row nb="9">0.16;8.6244</row>
                        <row nb="10">0.18;8.583600000000001</row>
                        <row nb="11">0.2;8.5389</row>
                        <row nb="12">0.22;8.5015</row>
                        <row nb="13">0.26;8.418799999999999</row>
                        <row nb="14">0.3;8.343500000000001</row>
                        <row nb="15">0.4;8.189399999999999</row>
                        <row nb="16">0.6;7.9491</row>
                        <row nb="17">1;7.6437</row>
                    </sfDataTable>
                </flow_curve_table>
                <flow_curve_table>
                    <fc_temperature dimension="8" unit="1" unit_symbol="°C">1200.0</fc_temperature>
                    <fc_strainrate dimension="24" unit="0" unit_symbol="1/s">0.01</fc_strainrate>
                    <sfDataTable name="T=1200.0 °C,phi_p=0.01 1/s" type="0" columns="2" rows="17" version="12.1">
                        <idTag>12</idTag>
                        <type>0</type>
                        <columns>2</columns>
                        <rows>17</rows>
                        <columndata type="0" datatype="1" fffunit="-1" unit_symbol="-" usage="1"/>
                        <columndata type="0" datatype="1" fffunit="851971" unit_symbol="MPa" usage="2"/>
                        <row nb="1">0;4.8985</row>
                        <row nb="2">0.02;4.8985</row>
                        <row nb="3">0.04;4.8979</row>
                        <row nb="4">0.06;4.8952</row>
                        <row nb="5">0.08;4.8884</row>
                        <row nb="6">0.1;4.8758</row>
                        <row nb="7">0.12;4.8577</row>
                        <row nb="8">0.14;4.8366</row>
                        <row nb="9">0.16;4.8158</row>
                        <row nb="10">0.18;4.7958</row>
                        <row nb="11">0.2;4.7666</row>
                        <row nb="12">0.22;4.7412</row>
                        <row nb="13">0.26;4.7037</row>
                        <row nb="14">0.3;4.6552</row>
                        <row nb="15">0.4;4.5682</row>
                        <row nb="16">0.6;4.4333</row>
                        <row nb="17">1;4.264</row>
                    </sfDataTable>
                </flow_curve_table>
                <flow_curve_table>
                    <fc_temperature dimension="8" unit="1" unit_symbol="°C">1300.0</fc_temperature>
                    <fc_strainrate dimension="24" unit="0" unit_symbol="1/s">0.01</fc_strainrate>
                    <sfDataTable name="T=1300.0 °C,phi_p=0.01 1/s" type="0" columns="2" rows="17" version="12.1">
                        <idTag>13</idTag>
                        <type>0</type>
                        <columns>2</columns>
                        <rows>17</rows>
                        <columndata type="0" datatype="1" fffunit="-1" unit_symbol="-" usage="1"/>
                        <columndata type="0" datatype="1" fffunit="851971" unit_symbol="MPa" usage="2"/>
                        <row nb="1">0;2.8527</row>
                        <row nb="2">0.02;2.8527</row>
                        <row nb="3">0.04;2.8522</row>
                        <row nb="4">0.06;2.8504</row>
                        <row nb="5">0.08;2.846</row>
                        <row nb="6">0.1;2.8382</row>
                        <row nb="7">0.12;2.8277</row>
                        <row nb="8">0.14;2.8166</row>
                        <row nb="9">0.16;2.8067</row>
                        <row nb="10">0.18;2.7963</row>
                        <row nb="11">0.2;2.7758</row>
                        <row nb="12">0.22;2.7574</row>
                        <row nb="13">0.26;2.7289</row>
                        <row nb="14">0.3;2.7106</row>
                        <row nb="15">0.4;2.6523</row>
                        <row nb="16">0.6;2.5854</row>
                        <row nb="17">1;2.4859</row>
                    </sfDataTable>
                </flow_curve_table>
                <flow_curve_table>
                    <fc_temperature dimension="8" unit="1" unit_symbol="°C">1400.0</fc_temperature>
                    <fc_strainrate dimension="24" unit="0" unit_symbol="1/s">0.01</fc_strainrate>
                    <sfDataTable name="T=1400.0 °C,phi_p=0.01 1/s" type="0" columns="2" rows="17" version="12.1">
                        <idTag>14</idTag>
                        <type>0</type>
                        <columns>2</columns>
                        <rows>17</rows>
                        <columndata type="0" datatype="1" fffunit="-1" unit_symbol="-" usage="1"/>
                        <columndata type="0" datatype="1" fffunit="851971" unit_symbol="MPa" usage="2"/>
                        <row nb="1">0;1.7196</row>
                        <row nb="2">0.02;1.7196</row>
                        <row nb="3">0.04;1.7193</row>
                        <row nb="4">0.06;1.7179</row>
                        <row nb="5">0.08;1.7149</row>
                        <row nb="6">0.1;1.7105</row>
                        <row nb="7">0.12;1.7058</row>
                        <row nb="8">0.14;1.7019</row>
                        <row nb="9">0.16;1.6947</row>
                        <row nb="10">0.18;1.68</row>
                        <row nb="11">0.2;1.6654</row>
                        <row nb="12">0.22;1.6521</row>
                        <row nb="13">0.26;1.6313</row>
                        <row nb="14">0.3;1.6178</row>
                        <row nb="15">0.4;1.6027</row>
                        <row nb="16">0.6;1.5342</row>
                        <row nb="17">1;1.5008</row>
                    </sfDataTable>
                </flow_curve_table>
            </flow_curves_table_approach>
            <rp02_scaling_factor>1</rp02_scaling_factor>
            <rm_scaling_factor>0.75</rm_scaling_factor>
            <latent_heat_table id="92">
                <sfDataTable name="Latent heat" type="0" columns="2" rows="28" version="12.1">
                    <idTag>213##Martensite</idTag>
                    <type>0</type>
                    <columns>2</columns>
                    <rows>28</rows>
                    <columndata title="Temperatur" name="Temperatur" type="0" datatype="1" fffunit="524289" unit_symbol="°C" usage="1"/>
                    <columndata title="Latente Wärme" name="Latente Wärme" type="0" datatype="1" fffunit="1638401" unit_symbol="J/g" usage="2"/>
                    <row nb="1">25;127.89011</row>
                    <row nb="2">50;128.00288</row>
                    <row nb="3">100;127.99843</row>
                    <row nb="4">150;127.6224</row>
                    <row nb="5">200;126.78531</row>
                    <row nb="6">250;125.38433</row>
                    <row nb="7">300;123.3019</row>
                    <row nb="8">350;120.4028</row>
                    <row nb="9">400;116.52929</row>
                    <row nb="10">450;111.49244</row>
                    <row nb="11">500;105.0578</row>
                    <row nb="12">550;96.93912</row>
                    <row nb="13">600;86.68837000000002</row>
                    <row nb="14">650;73.72089999999997</row>
                    <row nb="15">700;57.13243999999997</row>
                    <row nb="16">750;36.01121000000001</row>
                    <row nb="17">800;22.49785999999995</row>
                    <row nb="18">850;13.00949000000003</row>
                    <row nb="19">900;5.841850000000022</row>
                    <row nb="20">950;0.1702999999999975</row>
                    <row nb="21">1000;-4.465059999999994</row>
                    <row nb="22">1050;-8.34985000000006</row>
                    <row nb="23">1100;-11.67562999999996</row>
                    <row nb="24">1150;-14.57785999999999</row>
                    <row nb="25">1200;-17.15596000000005</row>
                    <row nb="26">1250;-19.48482000000001</row>
                    <row nb="27">1300;-21.61559999999997</row>
                    <row nb="28">1350;-23.59073999999998</row>
                </sfDataTable>
            </latent_heat_table>
            <volume_change id="93">
                <sfDataTable name="Transformation strains" type="0" columns="2" rows="18" version="12.1">
                    <idTag>214##Martensite</idTag>
                    <type>0</type>
                    <columns>2</columns>
                    <rows>18</rows>
                    <columndata title="Temperature" name="Temperatur" type="0" datatype="1" fffunit="524289" unit_symbol="°C" usage="1"/>
                    <columndata title="Size of dimension one" name="Volumenänderung" type="0" datatype="1" fffunit="-1" unit_symbol="-" usage="2"/>
                    <row nb="1">25;0.007682323</row>
                    <row nb="2">50;0.007356523</row>
                    <row nb="3">100;0.006722523</row>
                    <row nb="4">150;0.006111523</row>
                    <row nb="5">200;0.005523133</row>
                    <row nb="6">250;0.004957113</row>
                    <row nb="7">300;0.004413063</row>
                    <row nb="8">350;0.003890673</row>
                    <row nb="9">400;0.003389593</row>
                    <row nb="10">450;0.002909503</row>
                    <row nb="11">500;0.002450093</row>
                    <row nb="12">550;0.002011033</row>
                    <row nb="13">600;0.001592033</row>
                    <row nb="14">650;0.001192773</row>
                    <row nb="15">700;0.000812953</row>
                    <row nb="16">750;0.000452293</row>
                    <row nb="17">800;0.000110483</row>
                    <row nb="18">817.09;0</row>
                </sfDataTable>
            </volume_change>
            <trip_coefficient id="94">
                <sfDataTable name="Trip coefficient" type="0" columns="2" rows="28" version="12.1">
                    <idTag>234##Martensite</idTag>
                    <type>0</type>
                    <columns>2</columns>
                    <rows>28</rows>
                    <columndata title="Temperatur" name="Temperatur" type="0" datatype="1" fffunit="524289" unit_symbol="°C" usage="1"/>
                    <columndata title="Trip-Koeffizient" name="Trip-Koeffizient" type="0" datatype="1" fffunit="2621440" unit_symbol="1/MPa" usage="2"/>
                    <row nb="1">25;0.0001764382413619641</row>
                    <row nb="2">50;0.0001859704320363115</row>
                    <row nb="3">100;0.0001999533632660743</row>
                    <row nb="4">150;0.0002083959903597984</row>
                    <row nb="5">200;0.0002125341253488591</row>
                    <row nb="6">250;0.0002133434598804719</row>
                    <row nb="7">300;0.0002115899796589556</row>
                    <row nb="8">350;0.0002078677220809076</row>
                    <row nb="9">400;0.0002026462567305606</row>
                    <row nb="10">450;0.0001962941720021353</row>
                    <row nb="11">500;0.0001891102530281952</row>
                    <row nb="12">550;0.0001813295756450961</row>
                    <row nb="13">600;0.0001731428400531389</row>
                    <row nb="14">650;0.0001647098006978065</row>
                    <row nb="15">700;0.0001561557674962775</row>
                    <row nb="16">750;0.0001475877033962112</row>
                    <row nb="17">800;0.0001390921560512563</row>
                    <row nb="18">850;0.0001307415063340313</row>
                    <row nb="19">900;0.0001225959035220606</row>
                    <row nb="20">950;0.0001147057031951617</row>
                    <row nb="21">1000;0.0001071126650800758</row>
                    <row nb="22">1050;9.985184112084473e-05</row>
                    <row nb="23">1100;9.295228019681031e-05</row>
                    <row nb="24">1150;8.64382368993639e-05</row>
                    <row nb="25">1200;8.033000885782257e-05</row>
                    <row nb="26">1250;7.464406692409101e-05</row>
                    <row nb="27">1300;6.939415186794825e-05</row>
                    <row nb="28">1350;6.459119322426792e-05</row>
                </sfDataTable>
            </trip_coefficient>
            <cct_phase_fraction id="95">
                <sfDataTable name="CCT phase fraction" type="0" columns="2" rows="37" version="12.1">
                    <idTag>227##Martensite</idTag>
                    <type>0</type>
                    <columns>2</columns>
                    <rows>37</rows>
                    <columndata title="Abkühlrate" name="Abkühlrate" type="0" datatype="1" fffunit="2097152" unit_symbol="K/s" usage="1"/>
                    <columndata title="Martensit-Anteil" name="Martensit-Anteil" type="0" datatype="1" fffunit="-1" unit_symbol="-" usage="2"/>
                    <row nb="1">0.01;0</row>
                    <row nb="2">0.02;0</row>
                    <row nb="3">0.03;0</row>
                    <row nb="4">0.04;0</row>
                    <row nb="5">0.05;0</row>
                    <row nb="6">0.06;0</row>
                    <row nb="7">0.07000000000000001;0</row>
                    <row nb="8">0.08;0</row>
                    <row nb="9">0.09;0</row>
                    <row nb="10">0.1;0</row>
                    <row nb="11">0.2;0</row>
                    <row nb="12">0.3;0</row>
                    <row nb="13">0.4;0</row>
                    <row nb="14">0.5;0</row>
                    <row nb="15">0.6;0</row>
                    <row nb="16">0.7;0</row>
                    <row nb="17">0.8;0</row>
                    <row nb="18">0.9;0</row>
                    <row nb="19">1;0</row>
                    <row nb="20">2;0</row>
                    <row nb="21">3;0</row>
                    <row nb="22">4;0</row>
                    <row nb="23">5;0</row>
                    <row nb="24">6;0</row>
                    <row nb="25">7;0</row>
                    <row nb="26">8;0</row>
                    <row nb="27">9;0</row>
                    <row nb="28">10;0</row>
                    <row nb="29">20;0</row>
                    <row nb="30">30;0</row>
                    <row nb="31">40;0</row>
                    <row nb="32">50;0</row>
                    <row nb="33">60;0</row>
                    <row nb="34">70;0</row>
                    <row nb="35">80;0</row>
                    <row nb="36">90;0</row>
                    <row nb="37">100;0</row>
                </sfDataTable>
            </cct_phase_fraction>
            <ttt_martensite_0_percent_temp dimension="8" unit="1" unit_symbol="°C">430.2900000000001</ttt_martensite_0_percent_temp>
            <ttt_martensite_50_percent_temp dimension="8" unit="1" unit_symbol="°C">397.6220453534992</ttt_martensite_50_percent_temp>
            <ttt_martensite_90_percent_temp dimension="8" unit="1" unit_symbol="°C">321.7694036572826</ttt_martensite_90_percent_temp>
        </phase_transformation_martensite>
    </phase_transformation>
    <chemical_composition>
        <element name="C" min="0" max="0" fix="0.15"/>
        <element name="Cu" min="0" max="0" fix="0.4"/>
        <element name="Fe" min="0" max="0" fix="98.29300000000001"/>
        <element name="Mn" min="0" max="0" fix="1.1"/>
        <element name="N" min="0" max="0" fix="0.01"/>
        <element name="P" min="0" max="0" fix="0.02"/>
        <element name="S" min="0" max="0" fix="0.027"/>
    </chemical_composition>
    <misc>
        <misc_modified>true</misc_modified>
    </misc>
</sfMaterialData>
