<?xml version="1.0" encoding="UTF-8"?>
<!DOCTYPE sfMaterials>
<sfMaterialData>
    <modified_on_date>2018-09-11T09:02:28</modified_on_date>
    <import_date>2015-03-27T14:03:05</import_date>
    <file_version>63061</file_version>
    <name>S355J2G3-MPM_sw</name>
    <class>Welding</class>
    <group>General steel</group>
    <norm>1.0570</norm>
    <jis_norm>SM520C</jis_norm>
    <aisi_norm>2133</aisi_norm>
    <source>Simufact</source>
    <author>J. Sakkiettibutra</author>
    <comment>S355J2G3 
Low alloyed steel - welding (multi-phase model)
Ferritic-perlitic base material

Data based on:
Voß, O.: Untersuchung relevanter Einflußgrößen auf die numerische Schweißsimulation.
Dissertation, Technische Universität Braunschweig, 2001.
Flow curves:
Peil, U., Wichers, M.: Schweißen unter Betriebsbeanspruchung - Werkstoffkennwerte für einen S355 J2G3 unter Temperaturen bis 1200°C. Stahlbau 73 (2004) 6, 400-416.
Stress values of ferrite-perlite *1.39 are used flow curves values for bainite
Stress values of ferrite-perlite *1.97 are used flow curves values for martensite according to:
Loose, T.: Einfluß des transienten Schweißvorganges auf Verzug, Eigenspannungen und Stabilitätsverhalten axial gedrückter Kreiszylinderschalen aus Stahl. Dissertation, Universität Fridericiana zu Karlsruhe (TH), 2008.
No strain-rate dependancy considered; under 0.2% strain 0.005/min, over 0.2% strain 0.02/min
Updated 28.05.2013 - improved transformation data

t8/5 dependencies (hardness/proof-strength/tensile strength):
Seyffarth, P.: Grosser Atlas Schweiß-ZTU-Schaubilder. Bearbeitet von P.Seyffarth, B. Meyer, A. Scharff. Dt. Verlag für Schweißtechnik, DVS-Verlag, Düsseldorf 1992.
Hardness, tensile strength and proof stress of base material modelled by definition of values for a very high cooling rate (0.01K/s), measured values between t8/5-time 1s and 100s.
Updated 19.11.2014 - volume_change considers data only during cooling under A3

Electrical material properties based on: 
Wink, H.-J.; Krätschmer, D.: Charakterisierung und Modellierung des Bruchverhaltens von Punktschweißverbindungen in pressgehärteten Stählen, Teil II - Simulation des Schweißprozesses. 
11. LS-DYNA Forum, Ulm, 2012.

Poisson's ratio set to 0.3
Updated 19.05.2015</comment>
    <min_temperature dimension="8" unit="1" unit_symbol="°C">20.0</min_temperature>
    <max_temperature dimension="8" unit="1" unit_symbol="°C">1300.0</max_temperature>
    <min_effective_plastic_strain dimension="-1" unit="0" unit_symbol="-">0.0</min_effective_plastic_strain>
    <max_effective_plastic_strain dimension="-1" unit="0" unit_symbol="-">1.0</max_effective_plastic_strain>
    <min_strain_rate dimension="24" unit="0" unit_symbol="1/s">0.005</min_strain_rate>
    <max_strain_rate dimension="24" unit="0" unit_symbol="1/s">0.005</max_strain_rate>
    <transverse_contraction dimension="-1" unit="0" unit_symbol="-">0.3</transverse_contraction>
    <transverse_contraction_user_selection_datatype>0</transverse_contraction_user_selection_datatype>
    <melting_point dimension="8" unit="1" unit_symbol="°C">1500.0</melting_point>
    <solidus_temperature dimension="8" unit="1" unit_symbol="°C">1450.0</solidus_temperature>
    <latent_heat dimension="25" unit="0" unit_symbol="J/kg">256400.0</latent_heat>
    <dissipation_factor dimension="-1" unit="0" unit_symbol="-">0.9</dissipation_factor>
    <dissipation_factor_user_selection_datatype>0</dissipation_factor_user_selection_datatype>
    <electrical_resisitivity_user_selection_datatype>1</electrical_resisitivity_user_selection_datatype>
    <electrical_conductivity_conversion_factor dimension="-1" unit="0" unit_symbol="-">1.0</electrical_conductivity_conversion_factor>
    <diffusivity element="C" phase="Austenite">
        <autoScaling>1</autoScaling>
        <useDefaultEquation>1</useDefaultEquation>
        <scalingFactor>1</scalingFactor>
        <transformationThreshold>0.3</transformationThreshold>
        <value valueType="constant">
            <value>0</value>
            <alphaCoeff auto="false">
                <sfDataTable name="" type="0" columns="2" rows="3" version="12.1">
                    <name></name>
                    <idTag></idTag>
                    <comment></comment>
                    <type>0</type>
                    <columns>2</columns>
                    <rows>3</rows>
                    <columndata title="" type="0" datatype="1" fffunit="-1" unit_symbol="-" usage="1">
                        <name></name>
                    </columndata>
                    <columndata title="" type="0" datatype="1" fffunit="-1" unit_symbol="-" usage="2">
                        <name></name>
                    </columndata>
                    <row nb="1">0;1</row>
                    <row nb="2">0.75;1</row>
                    <row nb="3">1.5;1</row>
                </sfDataTable>
            </alphaCoeff>
            <flowStressScalingFactor auto="false">
                <sfDataTable name="" type="0" columns="2" rows="3" version="12.1">
                    <name></name>
                    <idTag></idTag>
                    <comment></comment>
                    <type>0</type>
                    <columns>2</columns>
                    <rows>3</rows>
                    <columndata title="" type="0" datatype="1" fffunit="-1" unit_symbol="-" usage="1">
                        <name></name>
                    </columndata>
                    <columndata title="" type="0" datatype="1" fffunit="-1" unit_symbol="-" usage="2">
                        <name></name>
                    </columndata>
                    <row nb="1">0;1</row>
                    <row nb="2">0.75;1</row>
                    <row nb="3">1.5;1</row>
                </sfDataTable>
            </flowStressScalingFactor>
            <tripCoeffScalingFactor auto="false">
                <sfDataTable name="" type="0" columns="2" rows="3" version="12.1">
                    <name></name>
                    <idTag></idTag>
                    <comment></comment>
                    <type>0</type>
                    <columns>2</columns>
                    <rows>3</rows>
                    <columndata title="" type="0" datatype="1" fffunit="-1" unit_symbol="-" usage="1">
                        <name></name>
                    </columndata>
                    <columndata title="" type="0" datatype="1" fffunit="-1" unit_symbol="-" usage="2">
                        <name></name>
                    </columndata>
                    <row nb="1">0;1</row>
                    <row nb="2">0.75;1</row>
                    <row nb="3">1.5;1</row>
                </sfDataTable>
            </tripCoeffScalingFactor>
        </value>
    </diffusivity>
    <PowderProperties>
        <avgGrainSize dimension="5" unit="0" Version="1">0.0</avgGrainSize>
        <grainSizeRange dimension="5" unit="0" Version="1">0.0</grainSizeRange>
        <type></type>
        <figures/>
    </PowderProperties>
    <flow_curves_used_approach>0</flow_curves_used_approach>
    <flow_curves_table_approach>
        <usePeakTemperatures>false</usePeakTemperatures>
        <temperatures count="13">
            <temperature dimension="8" unit="1" unit_symbol="°C">20.0</temperature>
            <temperature dimension="8" unit="1" unit_symbol="°C">100.0</temperature>
            <temperature dimension="8" unit="1" unit_symbol="°C">200.0</temperature>
            <temperature dimension="8" unit="1" unit_symbol="°C">300.0</temperature>
            <temperature dimension="8" unit="1" unit_symbol="°C">400.0</temperature>
            <temperature dimension="8" unit="1" unit_symbol="°C">500.0</temperature>
            <temperature dimension="8" unit="1" unit_symbol="°C">600.0</temperature>
            <temperature dimension="8" unit="1" unit_symbol="°C">700.0</temperature>
            <temperature dimension="8" unit="1" unit_symbol="°C">800.0</temperature>
            <temperature dimension="8" unit="1" unit_symbol="°C">900.0</temperature>
            <temperature dimension="8" unit="1" unit_symbol="°C">1000.0</temperature>
            <temperature dimension="8" unit="1" unit_symbol="°C">1100.0</temperature>
            <temperature dimension="8" unit="1" unit_symbol="°C">1300.0</temperature>
        </temperatures>
        <strain_rates count="1">
            <strain_rate dimension="24" unit="0" unit_symbol="1/s">0.005</strain_rate>
        </strain_rates>
        <flow_curve_table>
            <fc_temperature dimension="8" unit="1" unit_symbol="°C">20.0</fc_temperature>
            <fc_strainrate dimension="24" unit="0" unit_symbol="1/s">0.005</fc_strainrate>
            <sfDataTable name="T=20.0 °C,phi_p=0.005 1/s" type="0" columns="2" rows="19" version="12.1">
                <name>T=20.0 °C,phi_p=0.005 1/s</name>
                <idTag>0</idTag>
                <comment></comment>
                <type>0</type>
                <columns>2</columns>
                <rows>19</rows>
                <columndata title="" type="0" datatype="1" fffunit="-1" unit_symbol="-" usage="1">
                    <name></name>
                </columndata>
                <columndata title="" type="0" datatype="1" fffunit="851971" unit_symbol="MPa" usage="2">
                    <name></name>
                </columndata>
                <row nb="1">0;360</row>
                <row nb="2">0.003;363</row>
                <row nb="3">0.0035;364</row>
                <row nb="4">0.0054;367</row>
                <row nb="5">0.01;372</row>
                <row nb="6">0.03;439</row>
                <row nb="7">0.04;463</row>
                <row nb="8">0.05;485</row>
                <row nb="9">0.07000000000000001;521</row>
                <row nb="10">0.08500000000000001;542</row>
                <row nb="11">0.1;558</row>
                <row nb="12">0.13;577</row>
                <row nb="13">0.17;582</row>
                <row nb="14">0.24;591</row>
                <row nb="15">0.3;598</row>
                <row nb="16">0.4;611</row>
                <row nb="17">0.5;623</row>
                <row nb="18">0.8;660</row>
                <row nb="19">1;685</row>
            </sfDataTable>
        </flow_curve_table>
        <flow_curve_table>
            <fc_temperature dimension="8" unit="1" unit_symbol="°C">100.0</fc_temperature>
            <fc_strainrate dimension="24" unit="0" unit_symbol="1/s">0.005</fc_strainrate>
            <sfDataTable name="T=100.0 °C,phi_p=0.005 1/s" type="0" columns="2" rows="19" version="12.1">
                <name>T=100.0 °C,phi_p=0.005 1/s</name>
                <idTag>1</idTag>
                <comment></comment>
                <type>0</type>
                <columns>2</columns>
                <rows>19</rows>
                <columndata title="" type="0" datatype="1" fffunit="-1" unit_symbol="-" usage="1">
                    <name></name>
                </columndata>
                <columndata title="" type="0" datatype="1" fffunit="851971" unit_symbol="MPa" usage="2">
                    <name></name>
                </columndata>
                <row nb="1">0;346</row>
                <row nb="2">0.003;349</row>
                <row nb="3">0.0035;350</row>
                <row nb="4">0.0054;353</row>
                <row nb="5">0.01;361</row>
                <row nb="6">0.03;418</row>
                <row nb="7">0.04;441</row>
                <row nb="8">0.05;461</row>
                <row nb="9">0.07000000000000001;495</row>
                <row nb="10">0.08500000000000001;514</row>
                <row nb="11">0.1;529</row>
                <row nb="12">0.13;547</row>
                <row nb="13">0.17;551</row>
                <row nb="14">0.24;559</row>
                <row nb="15">0.3;566</row>
                <row nb="16">0.4;578</row>
                <row nb="17">0.5;589</row>
                <row nb="18">0.8;624</row>
                <row nb="19">1;647</row>
            </sfDataTable>
        </flow_curve_table>
        <flow_curve_table>
            <fc_temperature dimension="8" unit="1" unit_symbol="°C">200.0</fc_temperature>
            <fc_strainrate dimension="24" unit="0" unit_symbol="1/s">0.005</fc_strainrate>
            <sfDataTable name="T=200.0 °C,phi_p=0.005 1/s" type="0" columns="2" rows="19" version="12.1">
                <name>T=200.0 °C,phi_p=0.005 1/s</name>
                <idTag>2</idTag>
                <comment></comment>
                <type>0</type>
                <columns>2</columns>
                <rows>19</rows>
                <columndata title="" type="0" datatype="1" fffunit="-1" unit_symbol="-" usage="1">
                    <name></name>
                </columndata>
                <columndata title="" type="0" datatype="1" fffunit="851971" unit_symbol="MPa" usage="2">
                    <name></name>
                </columndata>
                <row nb="1">0;321</row>
                <row nb="2">0.003;325</row>
                <row nb="3">0.0035;328</row>
                <row nb="4">0.0054;331</row>
                <row nb="5">0.01;351</row>
                <row nb="6">0.03;455</row>
                <row nb="7">0.04;490</row>
                <row nb="8">0.05;520</row>
                <row nb="9">0.07000000000000001;561</row>
                <row nb="10">0.08500000000000001;577</row>
                <row nb="11">0.1;591</row>
                <row nb="12">0.13;606</row>
                <row nb="13">0.17;613</row>
                <row nb="14">0.24;624</row>
                <row nb="15">0.3;634</row>
                <row nb="16">0.4;650</row>
                <row nb="17">0.5;667</row>
                <row nb="18">0.8;716</row>
                <row nb="19">1;749</row>
            </sfDataTable>
        </flow_curve_table>
        <flow_curve_table>
            <fc_temperature dimension="8" unit="1" unit_symbol="°C">300.0</fc_temperature>
            <fc_strainrate dimension="24" unit="0" unit_symbol="1/s">0.005</fc_strainrate>
            <sfDataTable name="T=300.0 °C,phi_p=0.005 1/s" type="0" columns="2" rows="19" version="12.1">
                <name>T=300.0 °C,phi_p=0.005 1/s</name>
                <idTag>3</idTag>
                <comment></comment>
                <type>0</type>
                <columns>2</columns>
                <rows>19</rows>
                <columndata title="" type="0" datatype="1" fffunit="-1" unit_symbol="-" usage="1">
                    <name></name>
                </columndata>
                <columndata title="" type="0" datatype="1" fffunit="851971" unit_symbol="MPa" usage="2">
                    <name></name>
                </columndata>
                <row nb="1">0;301</row>
                <row nb="2">0.003;307</row>
                <row nb="3">0.0035;312</row>
                <row nb="4">0.0054;329</row>
                <row nb="5">0.01;367</row>
                <row nb="6">0.03;488</row>
                <row nb="7">0.04;528</row>
                <row nb="8">0.05;558</row>
                <row nb="9">0.07000000000000001;598</row>
                <row nb="10">0.08500000000000001;618</row>
                <row nb="11">0.1;634</row>
                <row nb="12">0.13;652</row>
                <row nb="13">0.17;660</row>
                <row nb="14">0.24;674</row>
                <row nb="15">0.3;686</row>
                <row nb="16">0.4;707</row>
                <row nb="17">0.5;727</row>
                <row nb="18">0.8;787</row>
                <row nb="19">1;828</row>
            </sfDataTable>
        </flow_curve_table>
        <flow_curve_table>
            <fc_temperature dimension="8" unit="1" unit_symbol="°C">400.0</fc_temperature>
            <fc_strainrate dimension="24" unit="0" unit_symbol="1/s">0.005</fc_strainrate>
            <sfDataTable name="T=400.0 °C,phi_p=0.005 1/s" type="0" columns="2" rows="19" version="12.1">
                <name>T=400.0 °C,phi_p=0.005 1/s</name>
                <idTag>4</idTag>
                <comment></comment>
                <type>0</type>
                <columns>2</columns>
                <rows>19</rows>
                <columndata title="" type="0" datatype="1" fffunit="-1" unit_symbol="-" usage="1">
                    <name></name>
                </columndata>
                <columndata title="" type="0" datatype="1" fffunit="851971" unit_symbol="MPa" usage="2">
                    <name></name>
                </columndata>
                <row nb="1">0;276</row>
                <row nb="2">0.003;289</row>
                <row nb="3">0.0035;293</row>
                <row nb="4">0.0054;307</row>
                <row nb="5">0.01;340</row>
                <row nb="6">0.03;450</row>
                <row nb="7">0.04;488</row>
                <row nb="8">0.05;517</row>
                <row nb="9">0.07000000000000001;555</row>
                <row nb="10">0.08500000000000001;571</row>
                <row nb="11">0.1;584</row>
                <row nb="12">0.13;601</row>
                <row nb="13">0.17;608</row>
                <row nb="14">0.24;622</row>
                <row nb="15">0.3;633</row>
                <row nb="16">0.4;651</row>
                <row nb="17">0.5;670</row>
                <row nb="18">0.8;726</row>
                <row nb="19">1;764</row>
            </sfDataTable>
        </flow_curve_table>
        <flow_curve_table>
            <fc_temperature dimension="8" unit="1" unit_symbol="°C">500.0</fc_temperature>
            <fc_strainrate dimension="24" unit="0" unit_symbol="1/s">0.005</fc_strainrate>
            <sfDataTable name="T=500.0 °C,phi_p=0.005 1/s" type="0" columns="2" rows="19" version="12.1">
                <name>T=500.0 °C,phi_p=0.005 1/s</name>
                <idTag>5</idTag>
                <comment></comment>
                <type>0</type>
                <columns>2</columns>
                <rows>19</rows>
                <columndata title="" type="0" datatype="1" fffunit="-1" unit_symbol="-" usage="1">
                    <name></name>
                </columndata>
                <columndata title="" type="0" datatype="1" fffunit="851971" unit_symbol="MPa" usage="2">
                    <name></name>
                </columndata>
                <row nb="1">0;228</row>
                <row nb="2">0.003;241</row>
                <row nb="3">0.0035;244</row>
                <row nb="4">0.0054;256</row>
                <row nb="5">0.01;283</row>
                <row nb="6">0.03;358</row>
                <row nb="7">0.04;376</row>
                <row nb="8">0.05;386</row>
                <row nb="9">0.07000000000000001;395</row>
                <row nb="10">0.08500000000000001;405</row>
                <row nb="11">0.1;411</row>
                <row nb="12">0.13;416</row>
                <row nb="13">0.17;420</row>
                <row nb="14">0.24;427</row>
                <row nb="15">0.3;434</row>
                <row nb="16">0.4;445</row>
                <row nb="17">0.5;455</row>
                <row nb="18">0.8;488</row>
                <row nb="19">1;510</row>
            </sfDataTable>
        </flow_curve_table>
        <flow_curve_table>
            <fc_temperature dimension="8" unit="1" unit_symbol="°C">600.0</fc_temperature>
            <fc_strainrate dimension="24" unit="0" unit_symbol="1/s">0.005</fc_strainrate>
            <sfDataTable name="T=600.0 °C,phi_p=0.005 1/s" type="0" columns="2" rows="19" version="12.1">
                <name>T=600.0 °C,phi_p=0.005 1/s</name>
                <idTag>6</idTag>
                <comment></comment>
                <type>0</type>
                <columns>2</columns>
                <rows>19</rows>
                <columndata title="" type="0" datatype="1" fffunit="-1" unit_symbol="-" usage="1">
                    <name></name>
                </columndata>
                <columndata title="" type="0" datatype="1" fffunit="851971" unit_symbol="MPa" usage="2">
                    <name></name>
                </columndata>
                <row nb="1">0;180</row>
                <row nb="2">0.003;182</row>
                <row nb="3">0.0035;182</row>
                <row nb="4">0.0054;185</row>
                <row nb="5">0.01;190</row>
                <row nb="6">0.03;194</row>
                <row nb="7">0.04;195</row>
                <row nb="8">0.05;196</row>
                <row nb="9">0.07000000000000001;197</row>
                <row nb="10">0.08500000000000001;198</row>
                <row nb="11">0.1;199</row>
                <row nb="12">0.13;200</row>
                <row nb="13">0.17;200</row>
                <row nb="14">0.24;201</row>
                <row nb="15">0.3;202</row>
                <row nb="16">0.4;203</row>
                <row nb="17">0.5;204</row>
                <row nb="18">0.8;208</row>
                <row nb="19">1;210</row>
            </sfDataTable>
        </flow_curve_table>
        <flow_curve_table>
            <fc_temperature dimension="8" unit="1" unit_symbol="°C">700.0</fc_temperature>
            <fc_strainrate dimension="24" unit="0" unit_symbol="1/s">0.005</fc_strainrate>
            <sfDataTable name="T=700.0 °C,phi_p=0.005 1/s" type="0" columns="2" rows="19" version="12.1">
                <name>T=700.0 °C,phi_p=0.005 1/s</name>
                <idTag>7</idTag>
                <comment></comment>
                <type>0</type>
                <columns>2</columns>
                <rows>19</rows>
                <columndata title="" type="0" datatype="1" fffunit="-1" unit_symbol="-" usage="1">
                    <name></name>
                </columndata>
                <columndata title="" type="0" datatype="1" fffunit="851971" unit_symbol="MPa" usage="2">
                    <name></name>
                </columndata>
                <row nb="1">0;87.90000000000001</row>
                <row nb="2">0.003;89.09999999999999</row>
                <row nb="3">0.0035;89.59999999999999</row>
                <row nb="4">0.0054;91.40000000000001</row>
                <row nb="5">0.01;94.40000000000001</row>
                <row nb="6">0.03;98</row>
                <row nb="7">0.04;98.90000000000001</row>
                <row nb="8">0.05;99.7</row>
                <row nb="9">0.07000000000000001;101</row>
                <row nb="10">0.08500000000000001;101</row>
                <row nb="11">0.1;102</row>
                <row nb="12">0.13;103</row>
                <row nb="13">0.17;103</row>
                <row nb="14">0.24;104</row>
                <row nb="15">0.3;104</row>
                <row nb="16">0.4;105</row>
                <row nb="17">0.5;106</row>
                <row nb="18">0.8;109</row>
                <row nb="19">1;110</row>
            </sfDataTable>
        </flow_curve_table>
        <flow_curve_table>
            <fc_temperature dimension="8" unit="1" unit_symbol="°C">800.0</fc_temperature>
            <fc_strainrate dimension="24" unit="0" unit_symbol="1/s">0.005</fc_strainrate>
            <sfDataTable name="T=800.0 °C,phi_p=0.005 1/s" type="0" columns="2" rows="19" version="12.1">
                <name>T=800.0 °C,phi_p=0.005 1/s</name>
                <idTag>8</idTag>
                <comment></comment>
                <type>0</type>
                <columns>2</columns>
                <rows>19</rows>
                <columndata title="" type="0" datatype="1" fffunit="-1" unit_symbol="-" usage="1">
                    <name></name>
                </columndata>
                <columndata title="" type="0" datatype="1" fffunit="851971" unit_symbol="MPa" usage="2">
                    <name></name>
                </columndata>
                <row nb="1">0;51.3</row>
                <row nb="2">0.003;51.8</row>
                <row nb="3">0.0035;52.1</row>
                <row nb="4">0.0054;52.9</row>
                <row nb="5">0.01;54.4</row>
                <row nb="6">0.03;57.5</row>
                <row nb="7">0.04;58.3</row>
                <row nb="8">0.05;58.8</row>
                <row nb="9">0.07000000000000001;59.8</row>
                <row nb="10">0.08500000000000001;60.3</row>
                <row nb="11">0.1;60.8</row>
                <row nb="12">0.13;61.3</row>
                <row nb="13">0.17;61.5</row>
                <row nb="14">0.24;61.9</row>
                <row nb="15">0.3;62.3</row>
                <row nb="16">0.4;62.9</row>
                <row nb="17">0.5;63.4</row>
                <row nb="18">0.8;65.2</row>
                <row nb="19">1;66.3</row>
            </sfDataTable>
        </flow_curve_table>
        <flow_curve_table>
            <fc_temperature dimension="8" unit="1" unit_symbol="°C">900.0</fc_temperature>
            <fc_strainrate dimension="24" unit="0" unit_symbol="1/s">0.005</fc_strainrate>
            <sfDataTable name="T=900.0 °C,phi_p=0.005 1/s" type="0" columns="2" rows="19" version="12.1">
                <name>T=900.0 °C,phi_p=0.005 1/s</name>
                <idTag>9</idTag>
                <comment></comment>
                <type>0</type>
                <columns>2</columns>
                <rows>19</rows>
                <columndata title="" type="0" datatype="1" fffunit="-1" unit_symbol="-" usage="1">
                    <name></name>
                </columndata>
                <columndata title="" type="0" datatype="1" fffunit="851971" unit_symbol="MPa" usage="2">
                    <name></name>
                </columndata>
                <row nb="1">0;37</row>
                <row nb="2">0.003;37.3</row>
                <row nb="3">0.0035;37.5</row>
                <row nb="4">0.0054;38.1</row>
                <row nb="5">0.01;39.3</row>
                <row nb="6">0.03;43</row>
                <row nb="7">0.04;44.1</row>
                <row nb="8">0.05;45</row>
                <row nb="9">0.07000000000000001;46.2</row>
                <row nb="10">0.08500000000000001;46.7</row>
                <row nb="11">0.1;47.2</row>
                <row nb="12">0.13;47.7</row>
                <row nb="13">0.17;48</row>
                <row nb="14">0.24;48.4</row>
                <row nb="15">0.3;48.8</row>
                <row nb="16">0.4;49.4</row>
                <row nb="17">0.5;50</row>
                <row nb="18">0.8;51.8</row>
                <row nb="19">1;53.1</row>
            </sfDataTable>
        </flow_curve_table>
        <flow_curve_table>
            <fc_temperature dimension="8" unit="1" unit_symbol="°C">1000.0</fc_temperature>
            <fc_strainrate dimension="24" unit="0" unit_symbol="1/s">0.005</fc_strainrate>
            <sfDataTable name="T=1000.0 °C,phi_p=0.005 1/s" type="0" columns="2" rows="19" version="12.1">
                <name>T=1000.0 °C,phi_p=0.005 1/s</name>
                <idTag>10</idTag>
                <comment></comment>
                <type>0</type>
                <columns>2</columns>
                <rows>19</rows>
                <columndata title="" type="0" datatype="1" fffunit="-1" unit_symbol="-" usage="1">
                    <name></name>
                </columndata>
                <columndata title="" type="0" datatype="1" fffunit="851971" unit_symbol="MPa" usage="2">
                    <name></name>
                </columndata>
                <row nb="1">0;24.4</row>
                <row nb="2">0.003;24.7</row>
                <row nb="3">0.0035;24.8</row>
                <row nb="4">0.0054;25.2</row>
                <row nb="5">0.01;26.1</row>
                <row nb="6">0.03;28.3</row>
                <row nb="7">0.04;28.9</row>
                <row nb="8">0.05;29.4</row>
                <row nb="9">0.07000000000000001;30.3</row>
                <row nb="10">0.08500000000000001;30.5</row>
                <row nb="11">0.1;31</row>
                <row nb="12">0.13;31.5</row>
                <row nb="13">0.17;31.7</row>
                <row nb="14">0.24;32</row>
                <row nb="15">0.3;32.2</row>
                <row nb="16">0.4;32.6</row>
                <row nb="17">0.5;33</row>
                <row nb="18">0.8;34.2</row>
                <row nb="19">1;35.1</row>
            </sfDataTable>
        </flow_curve_table>
        <flow_curve_table>
            <fc_temperature dimension="8" unit="1" unit_symbol="°C">1100.0</fc_temperature>
            <fc_strainrate dimension="24" unit="0" unit_symbol="1/s">0.005</fc_strainrate>
            <sfDataTable name="T=1100.0 °C,phi_p=0.005 1/s" type="0" columns="2" rows="19" version="12.1">
                <name>T=1100.0 °C,phi_p=0.005 1/s</name>
                <idTag>11</idTag>
                <comment></comment>
                <type>0</type>
                <columns>2</columns>
                <rows>19</rows>
                <columndata title="" type="0" datatype="1" fffunit="-1" unit_symbol="-" usage="1">
                    <name></name>
                </columndata>
                <columndata title="" type="0" datatype="1" fffunit="851971" unit_symbol="MPa" usage="2">
                    <name></name>
                </columndata>
                <row nb="1">0;16.2</row>
                <row nb="2">0.003;16.2</row>
                <row nb="3">0.0035;16.2</row>
                <row nb="4">0.0054;16.2</row>
                <row nb="5">0.01;16.2</row>
                <row nb="6">0.03;16.2</row>
                <row nb="7">0.04;16.2</row>
                <row nb="8">0.05;16.2</row>
                <row nb="9">0.07000000000000001;16.2</row>
                <row nb="10">0.08500000000000001;16.2</row>
                <row nb="11">0.1;16.2</row>
                <row nb="12">0.13;16.2</row>
                <row nb="13">0.17;16.2</row>
                <row nb="14">0.24;16.2</row>
                <row nb="15">0.3;16.2</row>
                <row nb="16">0.4;16.2</row>
                <row nb="17">0.5;16.2</row>
                <row nb="18">0.8;16.2</row>
                <row nb="19">1;16.2</row>
            </sfDataTable>
        </flow_curve_table>
        <flow_curve_table>
            <fc_temperature dimension="8" unit="1" unit_symbol="°C">1300.0</fc_temperature>
            <fc_strainrate dimension="24" unit="0" unit_symbol="1/s">0.005</fc_strainrate>
            <sfDataTable name="T=1300.0 °C,phi_p=0.005 1/s" type="0" columns="2" rows="19" version="12.1">
                <name>T=1300.0 °C,phi_p=0.005 1/s</name>
                <idTag>12</idTag>
                <comment></comment>
                <type>0</type>
                <columns>2</columns>
                <rows>19</rows>
                <columndata title="" type="0" datatype="1" fffunit="-1" unit_symbol="-" usage="1">
                    <name></name>
                </columndata>
                <columndata title="" type="0" datatype="1" fffunit="851971" unit_symbol="MPa" usage="2">
                    <name></name>
                </columndata>
                <row nb="1">0;5</row>
                <row nb="2">0.003;5</row>
                <row nb="3">0.0035;5</row>
                <row nb="4">0.0054;5</row>
                <row nb="5">0.01;5</row>
                <row nb="6">0.03;5</row>
                <row nb="7">0.04;5</row>
                <row nb="8">0.05;5</row>
                <row nb="9">0.07000000000000001;5</row>
                <row nb="10">0.08500000000000001;5</row>
                <row nb="11">0.1;5</row>
                <row nb="12">0.13;5</row>
                <row nb="13">0.17;5</row>
                <row nb="14">0.24;5</row>
                <row nb="15">0.3;5</row>
                <row nb="16">0.4;5</row>
                <row nb="17">0.5;5</row>
                <row nb="18">0.8;5</row>
                <row nb="19">1;5</row>
            </sfDataTable>
        </flow_curve_table>
    </flow_curves_table_approach>
    <phase_transformation>
        <austenitisation_temp dimension="8" unit="1" unit_symbol="°C">1350.0</austenitisation_temp>
        <cooling_rate dimension="32" unit="0" unit_symbol="K/s">11.86733223766291</cooling_rate>
        <a3 dimension="8" unit="1" unit_symbol="°C">692.85</a3>
        <a1 dimension="8" unit="1" unit_symbol="°C">809.4699999999999</a1>
        <phase_transformation_austenit>
            <youngs_modulus_table id="1">
                <sfDataTable name="Young's modulus" type="0" columns="2" rows="8" version="12.1">
                    <name>Young's modulus</name>
                    <idTag>42##Austenite</idTag>
                    <comment></comment>
                    <type>0</type>
                    <columns>2</columns>
                    <rows>8</rows>
                    <columndata title="Temperature" type="0" datatype="1" fffunit="524289" unit_symbol="°C" usage="1">
                        <name>Temperature</name>
                    </columndata>
                    <columndata title="Young's modulus" type="0" datatype="1" fffunit="851971" unit_symbol="MPa" usage="2">
                        <name>Young's modulus</name>
                    </columndata>
                    <row nb="1">20;207000</row>
                    <row nb="2">200;200000</row>
                    <row nb="3">400;180000</row>
                    <row nb="4">600;132000</row>
                    <row nb="5">800;53000</row>
                    <row nb="6">1000;25000</row>
                    <row nb="7">1100;16500</row>
                    <row nb="8">1200;10500</row>
                </sfDataTable>
            </youngs_modulus_table>
            <transverse_contraction_table id="2">
                <sfDataTable name="Poisson's ratio" type="0" columns="2" rows="2" version="12.1">
                    <name>Poisson's ratio</name>
                    <idTag>45##Austenite</idTag>
                    <comment></comment>
                    <type>0</type>
                    <columns>2</columns>
                    <rows>2</rows>
                    <columndata title="Temperature" type="0" datatype="1" fffunit="524289" unit_symbol="°C" usage="1">
                        <name>Temperature</name>
                    </columndata>
                    <columndata title="Poisson's ratio" type="0" datatype="1" fffunit="-1" unit_symbol="-" usage="2">
                        <name>Poisson's ratio</name>
                    </columndata>
                    <row nb="1">20;0.3</row>
                    <row nb="2">1300;0.3</row>
                </sfDataTable>
            </transverse_contraction_table>
            <thermal_expansion_table id="4">
                <sfDataTable name="Thermal expansion coeff." type="0" columns="2" rows="5" version="12.1">
                    <name>Thermal expansion coeff.</name>
                    <idTag>48##Austenite</idTag>
                    <comment></comment>
                    <type>0</type>
                    <columns>2</columns>
                    <rows>5</rows>
                    <columndata title="Temperatur" type="0" datatype="1" fffunit="524289" unit_symbol="°C" usage="1">
                        <name>Temperature</name>
                    </columndata>
                    <columndata title="Thermische Ausdehnung" type="0" datatype="1" fffunit="983041" unit_symbol="1/°C" usage="2">
                        <name>Thermal expansion</name>
                    </columndata>
                    <row nb="1">-100;0</row>
                    <row nb="2">-40;2.522e-5</row>
                    <row nb="3">20;2.522e-5</row>
                    <row nb="4">1450;2.552e-5</row>
                    <row nb="5">1500;0</row>
                </sfDataTable>
            </thermal_expansion_table>
            <density_table id="3">
                <sfDataTable name="Density" type="0" columns="2" rows="2" version="12.1">
                    <name>Density</name>
                    <idTag>51##Austenite</idTag>
                    <comment></comment>
                    <type>0</type>
                    <columns>2</columns>
                    <rows>2</rows>
                    <columndata title="Temperature" type="0" datatype="1" fffunit="524289" unit_symbol="°C" usage="1">
                        <name>Temperature</name>
                    </columndata>
                    <columndata title="Density" type="0" datatype="1" fffunit="720902" unit_symbol="g/cm³" usage="2">
                        <name>Density</name>
                    </columndata>
                    <row nb="1">20;7.99</row>
                    <row nb="2">1500;7.29</row>
                </sfDataTable>
            </density_table>
            <thermal_conductivity_table id="5">
                <sfDataTable name="Thermal conductivity" type="0" columns="2" rows="10" version="12.1">
                    <name>Thermal conductivity</name>
                    <idTag>54##Austenite</idTag>
                    <comment></comment>
                    <type>0</type>
                    <columns>2</columns>
                    <rows>10</rows>
                    <columndata title="Temperature" type="0" datatype="1" fffunit="524289" unit_symbol="°C" usage="1">
                        <name>Temperature</name>
                    </columndata>
                    <columndata title="Thermal conductivity" type="0" datatype="1" fffunit="917505" unit_symbol="W/(m·K)" usage="2">
                        <name>Thermal conductivity</name>
                    </columndata>
                    <row nb="1">20;15</row>
                    <row nb="2">100;16.125</row>
                    <row nb="3">200;17.25</row>
                    <row nb="4">300;18.375</row>
                    <row nb="5">400;19.5</row>
                    <row nb="6">500;20.625</row>
                    <row nb="7">600;21.75</row>
                    <row nb="8">700;22.875</row>
                    <row nb="9">800;24</row>
                    <row nb="10">1500;32</row>
                </sfDataTable>
            </thermal_conductivity_table>
            <specific_heat_capacity_table id="6">
                <sfDataTable name="Specific heat capacity" type="0" columns="2" rows="11" version="12.1">
                    <name>Specific heat capacity</name>
                    <idTag>57##Austenite</idTag>
                    <comment></comment>
                    <type>0</type>
                    <columns>2</columns>
                    <rows>11</rows>
                    <columndata title="Temperature" type="0" datatype="1" fffunit="524289" unit_symbol="°C" usage="1">
                        <name>Temperature</name>
                    </columndata>
                    <columndata title="Heat capacity" type="0" datatype="1" fffunit="1179648" unit_symbol="kJ/(kg·K)" usage="2">
                        <name>Heat capacity</name>
                    </columndata>
                    <row nb="1">25;0.45</row>
                    <row nb="2">100;0.473</row>
                    <row nb="3">200;0.495</row>
                    <row nb="4">300;0.512</row>
                    <row nb="5">400;0.523</row>
                    <row nb="6">500;0.533</row>
                    <row nb="7">600;0.541</row>
                    <row nb="8">700;0.548</row>
                    <row nb="9">800;0.556</row>
                    <row nb="10">900;0.5649999999999999</row>
                    <row nb="11">1440;0.63</row>
                </sfDataTable>
            </specific_heat_capacity_table>
            <electrical_resisitivity_table id="0">
                <sfDataTable name="Electrical resistivity" type="0" columns="2" rows="53" version="12.1">
                    <name>Electrical resistivity</name>
                    <idTag>60##Austenite</idTag>
                    <comment></comment>
                    <type>0</type>
                    <columns>2</columns>
                    <rows>53</rows>
                    <columndata title="Temperature" type="0" datatype="1" fffunit="524289" unit_symbol="°C" usage="1">
                        <name>Temperature</name>
                    </columndata>
                    <columndata title="Electrical resistivity" type="0" datatype="1" fffunit="2818048" unit_symbol="Ω·m" usage="2">
                        <name>Electrical resistivity</name>
                    </columndata>
                    <row nb="1">20;2.33506494e-7</row>
                    <row nb="2">38.09523810000002;2.43506494e-7</row>
                    <row nb="3">51.42857142999998;2.5e-7</row>
                    <row nb="4">68.57142856999997;2.5974026e-7</row>
                    <row nb="5">93.33333333000002;2.75974026e-7</row>
                    <row nb="6">121.9047619;2.92207792e-7</row>
                    <row nb="7">163.8095238;3.18181818e-7</row>
                    <row nb="8">186.6666667;3.37662338e-7</row>
                    <row nb="9">205.7142857;3.50649351e-7</row>
                    <row nb="10">241.9047619;3.76623377e-7</row>
                    <row nb="11">266.6666667000001;3.96103896e-7</row>
                    <row nb="12">300.9523809999999;4.22077922e-7</row>
                    <row nb="13">323.8095238;4.41558442e-7</row>
                    <row nb="14">340.9523809999999;4.57792208e-7</row>
                    <row nb="15">371.4285714;4.83766234e-7</row>
                    <row nb="16">384.7619048;4.96753247e-7</row>
                    <row nb="17">403.8095238;5.16233766e-7</row>
                    <row nb="18">422.8571429;5.357142860000001e-7</row>
                    <row nb="19">447.6190476;5.61688312e-7</row>
                    <row nb="20">464.7619048;5.779220779999999e-7</row>
                    <row nb="21">493.3333332999999;6.07142857e-7</row>
                    <row nb="22">516.1904762;6.331168830000001e-7</row>
                    <row nb="23">540.9523809999999;6.59090909e-7</row>
                    <row nb="24">563.8095238;6.915584420000001e-7</row>
                    <row nb="25">584.7619048;7.207792210000001e-7</row>
                    <row nb="26">615.2380952;7.597402599999999e-7</row>
                    <row nb="27">636.1904762;7.88961039e-7</row>
                    <row nb="28">647.6190476;8.051948049999999e-7</row>
                    <row nb="29">672.3809524;8.40909091e-7</row>
                    <row nb="30">681.9047619;8.571428570000001e-7</row>
                    <row nb="31">699.0476190000001;8.86363636e-7</row>
                    <row nb="32">714.2857143;9.09090909e-7</row>
                    <row nb="33">735.2380952;9.48051948e-7</row>
                    <row nb="34">740.9523809999999;9.577922080000001e-7</row>
                    <row nb="35">744.7619048;9.70779221e-7</row>
                    <row nb="36">748.5714286;9.837662339999999e-7</row>
                    <row nb="37">752.3809524;9.902597400000001e-7</row>
                    <row nb="38">758.0952380999998;1.00974026e-6</row>
                    <row nb="39">763.8095238;1.022727273e-6</row>
                    <row nb="40">775.2380952;1.042207792e-6</row>
                    <row nb="41">786.6666667000001;1.055194805e-6</row>
                    <row nb="42">801.9047618999999;1.064935065e-6</row>
                    <row nb="43">817.1428571;1.074675325e-6</row>
                    <row nb="44">832.3809524;1.081168831e-6</row>
                    <row nb="45">847.6190476;1.084415584e-6</row>
                    <row nb="46">870.4761905000001;1.094155844e-6</row>
                    <row nb="47">895.2380952;1.103896104e-6</row>
                    <row nb="48">920.0000000000001;1.113636364e-6</row>
                    <row nb="49">940.9523809999999;1.12012987e-6</row>
                    <row nb="50">960.0000000000001;1.126623377e-6</row>
                    <row nb="51">980.9523809999999;1.133116883e-6</row>
                    <row nb="52">1000;1.13961039e-6</row>
                    <row nb="53">1022.857143;1.146103896e-6</row>
                </sfDataTable>
            </electrical_resisitivity_table>
            <flow_curves_used_approach>0</flow_curves_used_approach>
            <flow_curves_table_approach>
                <usePeakTemperatures>false</usePeakTemperatures>
                <temperatures count="13">
                    <temperature dimension="8" unit="1" unit_symbol="°C">20.0</temperature>
                    <temperature dimension="8" unit="1" unit_symbol="°C">100.0</temperature>
                    <temperature dimension="8" unit="1" unit_symbol="°C">200.0</temperature>
                    <temperature dimension="8" unit="1" unit_symbol="°C">300.0</temperature>
                    <temperature dimension="8" unit="1" unit_symbol="°C">400.0</temperature>
                    <temperature dimension="8" unit="1" unit_symbol="°C">500.0</temperature>
                    <temperature dimension="8" unit="1" unit_symbol="°C">600.0</temperature>
                    <temperature dimension="8" unit="1" unit_symbol="°C">700.0</temperature>
                    <temperature dimension="8" unit="1" unit_symbol="°C">800.0</temperature>
                    <temperature dimension="8" unit="1" unit_symbol="°C">900.0</temperature>
                    <temperature dimension="8" unit="1" unit_symbol="°C">1000.0</temperature>
                    <temperature dimension="8" unit="1" unit_symbol="°C">1100.0</temperature>
                    <temperature dimension="8" unit="1" unit_symbol="°C">1300.0</temperature>
                </temperatures>
                <strain_rates count="1">
                    <strain_rate dimension="24" unit="0" unit_symbol="1/s">0.005</strain_rate>
                </strain_rates>
                <flow_curve_table>
                    <fc_temperature dimension="8" unit="1" unit_symbol="°C">20.0</fc_temperature>
                    <fc_strainrate dimension="24" unit="0" unit_symbol="1/s">0.005</fc_strainrate>
                    <sfDataTable name="T=20.0 °C,phi_p=0.005 1/s" type="0" columns="2" rows="19" version="12.1">
                        <name>T=20.0 °C,phi_p=0.005 1/s</name>
                        <idTag>0</idTag>
                        <comment></comment>
                        <type>0</type>
                        <columns>2</columns>
                        <rows>19</rows>
                        <columndata title="" type="0" datatype="1" fffunit="-1" unit_symbol="-" usage="1">
                            <name></name>
                        </columndata>
                        <columndata title="" type="0" datatype="1" fffunit="851971" unit_symbol="MPa" usage="2">
                            <name></name>
                        </columndata>
                        <row nb="1">0;245</row>
                        <row nb="2">0.003;277</row>
                        <row nb="3">0.0035;291</row>
                        <row nb="4">0.0054;304</row>
                        <row nb="5">0.01;314</row>
                        <row nb="6">0.03;349</row>
                        <row nb="7">0.04;365</row>
                        <row nb="8">0.05;374</row>
                        <row nb="9">0.07000000000000001;388</row>
                        <row nb="10">0.08500000000000001;391</row>
                        <row nb="11">0.1;393</row>
                        <row nb="12">0.13;398</row>
                        <row nb="13">0.17;405</row>
                        <row nb="14">0.24;414</row>
                        <row nb="15">0.3;418</row>
                        <row nb="16">0.4;425</row>
                        <row nb="17">0.5;432</row>
                        <row nb="18">0.8;444</row>
                        <row nb="19">1;451</row>
                    </sfDataTable>
                </flow_curve_table>
                <flow_curve_table>
                    <fc_temperature dimension="8" unit="1" unit_symbol="°C">100.0</fc_temperature>
                    <fc_strainrate dimension="24" unit="0" unit_symbol="1/s">0.005</fc_strainrate>
                    <sfDataTable name="T=100.0 °C,phi_p=0.005 1/s" type="0" columns="2" rows="19" version="12.1">
                        <name>T=100.0 °C,phi_p=0.005 1/s</name>
                        <idTag>1</idTag>
                        <comment></comment>
                        <type>0</type>
                        <columns>2</columns>
                        <rows>19</rows>
                        <columndata title="" type="0" datatype="1" fffunit="-1" unit_symbol="-" usage="1">
                            <name></name>
                        </columndata>
                        <columndata title="" type="0" datatype="1" fffunit="851971" unit_symbol="MPa" usage="2">
                            <name></name>
                        </columndata>
                        <row nb="1">0;230</row>
                        <row nb="2">0.003;261</row>
                        <row nb="3">0.0035;274</row>
                        <row nb="4">0.0054;286</row>
                        <row nb="5">0.01;296</row>
                        <row nb="6">0.03;329</row>
                        <row nb="7">0.04;344</row>
                        <row nb="8">0.05;353</row>
                        <row nb="9">0.07000000000000001;366</row>
                        <row nb="10">0.08500000000000001;368</row>
                        <row nb="11">0.1;370</row>
                        <row nb="12">0.13;375</row>
                        <row nb="13">0.17;381</row>
                        <row nb="14">0.24;390</row>
                        <row nb="15">0.3;395</row>
                        <row nb="16">0.4;401</row>
                        <row nb="17">0.5;408</row>
                        <row nb="18">0.8;419</row>
                        <row nb="19">1;426</row>
                    </sfDataTable>
                </flow_curve_table>
                <flow_curve_table>
                    <fc_temperature dimension="8" unit="1" unit_symbol="°C">200.0</fc_temperature>
                    <fc_strainrate dimension="24" unit="0" unit_symbol="1/s">0.005</fc_strainrate>
                    <sfDataTable name="T=200.0 °C,phi_p=0.005 1/s" type="0" columns="2" rows="19" version="12.1">
                        <name>T=200.0 °C,phi_p=0.005 1/s</name>
                        <idTag>2</idTag>
                        <comment></comment>
                        <type>0</type>
                        <columns>2</columns>
                        <rows>19</rows>
                        <columndata title="" type="0" datatype="1" fffunit="-1" unit_symbol="-" usage="1">
                            <name></name>
                        </columndata>
                        <columndata title="" type="0" datatype="1" fffunit="851971" unit_symbol="MPa" usage="2">
                            <name></name>
                        </columndata>
                        <row nb="1">0;175</row>
                        <row nb="2">0.003;201</row>
                        <row nb="3">0.0035;213</row>
                        <row nb="4">0.0054;223</row>
                        <row nb="5">0.01;232</row>
                        <row nb="6">0.03;260</row>
                        <row nb="7">0.04;273</row>
                        <row nb="8">0.05;281</row>
                        <row nb="9">0.07000000000000001;292</row>
                        <row nb="10">0.08500000000000001;294</row>
                        <row nb="11">0.1;296</row>
                        <row nb="12">0.13;300</row>
                        <row nb="13">0.17;305</row>
                        <row nb="14">0.24;313</row>
                        <row nb="15">0.3;317</row>
                        <row nb="16">0.4;322</row>
                        <row nb="17">0.5;328</row>
                        <row nb="18">0.8;337</row>
                        <row nb="19">1;343</row>
                    </sfDataTable>
                </flow_curve_table>
                <flow_curve_table>
                    <fc_temperature dimension="8" unit="1" unit_symbol="°C">300.0</fc_temperature>
                    <fc_strainrate dimension="24" unit="0" unit_symbol="1/s">0.005</fc_strainrate>
                    <sfDataTable name="T=300.0 °C,phi_p=0.005 1/s" type="0" columns="2" rows="19" version="12.1">
                        <name>T=300.0 °C,phi_p=0.005 1/s</name>
                        <idTag>3</idTag>
                        <comment></comment>
                        <type>0</type>
                        <columns>2</columns>
                        <rows>19</rows>
                        <columndata title="" type="0" datatype="1" fffunit="-1" unit_symbol="-" usage="1">
                            <name></name>
                        </columndata>
                        <columndata title="" type="0" datatype="1" fffunit="851971" unit_symbol="MPa" usage="2">
                            <name></name>
                        </columndata>
                        <row nb="1">0;145</row>
                        <row nb="2">0.003;169</row>
                        <row nb="3">0.0035;179</row>
                        <row nb="4">0.0054;189</row>
                        <row nb="5">0.01;196</row>
                        <row nb="6">0.03;221</row>
                        <row nb="7">0.04;233</row>
                        <row nb="8">0.05;240</row>
                        <row nb="9">0.07000000000000001;250</row>
                        <row nb="10">0.08500000000000001;252</row>
                        <row nb="11">0.1;254</row>
                        <row nb="12">0.13;257</row>
                        <row nb="13">0.17;262</row>
                        <row nb="14">0.24;269</row>
                        <row nb="15">0.3;272</row>
                        <row nb="16">0.4;278</row>
                        <row nb="17">0.5;283</row>
                        <row nb="18">0.8;291</row>
                        <row nb="19">1;296</row>
                    </sfDataTable>
                </flow_curve_table>
                <flow_curve_table>
                    <fc_temperature dimension="8" unit="1" unit_symbol="°C">400.0</fc_temperature>
                    <fc_strainrate dimension="24" unit="0" unit_symbol="1/s">0.005</fc_strainrate>
                    <sfDataTable name="T=400.0 °C,phi_p=0.005 1/s" type="0" columns="2" rows="19" version="12.1">
                        <name>T=400.0 °C,phi_p=0.005 1/s</name>
                        <idTag>4</idTag>
                        <comment></comment>
                        <type>0</type>
                        <columns>2</columns>
                        <rows>19</rows>
                        <columndata title="" type="0" datatype="1" fffunit="-1" unit_symbol="-" usage="1">
                            <name></name>
                        </columndata>
                        <columndata title="" type="0" datatype="1" fffunit="851971" unit_symbol="MPa" usage="2">
                            <name></name>
                        </columndata>
                        <row nb="1">0;110</row>
                        <row nb="2">0.003;129</row>
                        <row nb="3">0.0035;137</row>
                        <row nb="4">0.0054;145</row>
                        <row nb="5">0.01;151</row>
                        <row nb="6">0.03;172</row>
                        <row nb="7">0.04;181</row>
                        <row nb="8">0.05;187</row>
                        <row nb="9">0.07000000000000001;195</row>
                        <row nb="10">0.08500000000000001;196</row>
                        <row nb="11">0.1;198</row>
                        <row nb="12">0.13;200</row>
                        <row nb="13">0.17;204</row>
                        <row nb="14">0.24;210</row>
                        <row nb="15">0.3;213</row>
                        <row nb="16">0.4;217</row>
                        <row nb="17">0.5;221</row>
                        <row nb="18">0.8;228</row>
                        <row nb="19">1;232</row>
                    </sfDataTable>
                </flow_curve_table>
                <flow_curve_table>
                    <fc_temperature dimension="8" unit="1" unit_symbol="°C">500.0</fc_temperature>
                    <fc_strainrate dimension="24" unit="0" unit_symbol="1/s">0.005</fc_strainrate>
                    <sfDataTable name="T=500.0 °C,phi_p=0.005 1/s" type="0" columns="2" rows="19" version="12.1">
                        <name>T=500.0 °C,phi_p=0.005 1/s</name>
                        <idTag>5</idTag>
                        <comment></comment>
                        <type>0</type>
                        <columns>2</columns>
                        <rows>19</rows>
                        <columndata title="" type="0" datatype="1" fffunit="-1" unit_symbol="-" usage="1">
                            <name></name>
                        </columndata>
                        <columndata title="" type="0" datatype="1" fffunit="851971" unit_symbol="MPa" usage="2">
                            <name></name>
                        </columndata>
                        <row nb="1">0;83</row>
                        <row nb="2">0.003;98.8</row>
                        <row nb="3">0.0035;106</row>
                        <row nb="4">0.0054;112</row>
                        <row nb="5">0.01;117</row>
                        <row nb="6">0.03;134</row>
                        <row nb="7">0.04;142</row>
                        <row nb="8">0.05;146</row>
                        <row nb="9">0.07000000000000001;153</row>
                        <row nb="10">0.08500000000000001;154</row>
                        <row nb="11">0.1;156</row>
                        <row nb="12">0.13;158</row>
                        <row nb="13">0.17;161</row>
                        <row nb="14">0.24;166</row>
                        <row nb="15">0.3;168</row>
                        <row nb="16">0.4;171</row>
                        <row nb="17">0.5;175</row>
                        <row nb="18">0.8;180</row>
                        <row nb="19">1;184</row>
                    </sfDataTable>
                </flow_curve_table>
                <flow_curve_table>
                    <fc_temperature dimension="8" unit="1" unit_symbol="°C">600.0</fc_temperature>
                    <fc_strainrate dimension="24" unit="0" unit_symbol="1/s">0.005</fc_strainrate>
                    <sfDataTable name="T=600.0 °C,phi_p=0.005 1/s" type="0" columns="2" rows="19" version="12.1">
                        <name>T=600.0 °C,phi_p=0.005 1/s</name>
                        <idTag>6</idTag>
                        <comment></comment>
                        <type>0</type>
                        <columns>2</columns>
                        <rows>19</rows>
                        <columndata title="" type="0" datatype="1" fffunit="-1" unit_symbol="-" usage="1">
                            <name></name>
                        </columndata>
                        <columndata title="" type="0" datatype="1" fffunit="851971" unit_symbol="MPa" usage="2">
                            <name></name>
                        </columndata>
                        <row nb="1">0;60</row>
                        <row nb="2">0.003;72.5</row>
                        <row nb="3">0.0035;77.90000000000001</row>
                        <row nb="4">0.0054;82.90000000000001</row>
                        <row nb="5">0.01;86.90000000000001</row>
                        <row nb="6">0.03;100</row>
                        <row nb="7">0.04;107</row>
                        <row nb="8">0.05;110</row>
                        <row nb="9">0.07000000000000001;116</row>
                        <row nb="10">0.08500000000000001;117</row>
                        <row nb="11">0.1;117</row>
                        <row nb="12">0.13;119</row>
                        <row nb="13">0.17;122</row>
                        <row nb="14">0.24;125</row>
                        <row nb="15">0.3;127</row>
                        <row nb="16">0.4;130</row>
                        <row nb="17">0.5;133</row>
                        <row nb="18">0.8;137</row>
                        <row nb="19">1;140</row>
                    </sfDataTable>
                </flow_curve_table>
                <flow_curve_table>
                    <fc_temperature dimension="8" unit="1" unit_symbol="°C">700.0</fc_temperature>
                    <fc_strainrate dimension="24" unit="0" unit_symbol="1/s">0.005</fc_strainrate>
                    <sfDataTable name="T=700.0 °C,phi_p=0.005 1/s" type="0" columns="2" rows="19" version="12.1">
                        <name>T=700.0 °C,phi_p=0.005 1/s</name>
                        <idTag>7</idTag>
                        <comment></comment>
                        <type>0</type>
                        <columns>2</columns>
                        <rows>19</rows>
                        <columndata title="" type="0" datatype="1" fffunit="-1" unit_symbol="-" usage="1">
                            <name></name>
                        </columndata>
                        <columndata title="" type="0" datatype="1" fffunit="851971" unit_symbol="MPa" usage="2">
                            <name></name>
                        </columndata>
                        <row nb="1">0;50</row>
                        <row nb="2">0.003;59.2</row>
                        <row nb="3">0.0035;63.2</row>
                        <row nb="4">0.0054;66.90000000000001</row>
                        <row nb="5">0.01;69.8</row>
                        <row nb="6">0.03;79.7</row>
                        <row nb="7">0.04;84.3</row>
                        <row nb="8">0.05;87</row>
                        <row nb="9">0.07000000000000001;90.90000000000001</row>
                        <row nb="10">0.08500000000000001;91.59999999999999</row>
                        <row nb="11">0.1;92.3</row>
                        <row nb="12">0.13;93.59999999999999</row>
                        <row nb="13">0.17;95.59999999999999</row>
                        <row nb="14">0.24;98.2</row>
                        <row nb="15">0.3;99.5</row>
                        <row nb="16">0.4;102</row>
                        <row nb="17">0.5;104</row>
                        <row nb="18">0.8;107</row>
                        <row nb="19">1;109</row>
                    </sfDataTable>
                </flow_curve_table>
                <flow_curve_table>
                    <fc_temperature dimension="8" unit="1" unit_symbol="°C">800.0</fc_temperature>
                    <fc_strainrate dimension="24" unit="0" unit_symbol="1/s">0.005</fc_strainrate>
                    <sfDataTable name="T=800.0 °C,phi_p=0.005 1/s" type="0" columns="2" rows="19" version="12.1">
                        <name>T=800.0 °C,phi_p=0.005 1/s</name>
                        <idTag>8</idTag>
                        <comment></comment>
                        <type>0</type>
                        <columns>2</columns>
                        <rows>19</rows>
                        <columndata title="" type="0" datatype="1" fffunit="-1" unit_symbol="-" usage="1">
                            <name></name>
                        </columndata>
                        <columndata title="" type="0" datatype="1" fffunit="851971" unit_symbol="MPa" usage="2">
                            <name></name>
                        </columndata>
                        <row nb="1">0;45</row>
                        <row nb="2">0.003;51.6</row>
                        <row nb="3">0.0035;54.4</row>
                        <row nb="4">0.0054;57.1</row>
                        <row nb="5">0.01;59.2</row>
                        <row nb="6">0.03;66.2</row>
                        <row nb="7">0.04;69.5</row>
                        <row nb="8">0.05;71.40000000000001</row>
                        <row nb="9">0.07000000000000001;74.2</row>
                        <row nb="10">0.08500000000000001;74.7</row>
                        <row nb="11">0.1;75.2</row>
                        <row nb="12">0.13;76.09999999999999</row>
                        <row nb="13">0.17;77.5</row>
                        <row nb="14">0.24;79.40000000000001</row>
                        <row nb="15">0.3;80.40000000000001</row>
                        <row nb="16">0.4;81.8</row>
                        <row nb="17">0.5;83.2</row>
                        <row nb="18">0.8;85.59999999999999</row>
                        <row nb="19">1;87</row>
                    </sfDataTable>
                </flow_curve_table>
                <flow_curve_table>
                    <fc_temperature dimension="8" unit="1" unit_symbol="°C">900.0</fc_temperature>
                    <fc_strainrate dimension="24" unit="0" unit_symbol="1/s">0.005</fc_strainrate>
                    <sfDataTable name="T=900.0 °C,phi_p=0.005 1/s" type="0" columns="2" rows="19" version="12.1">
                        <name>T=900.0 °C,phi_p=0.005 1/s</name>
                        <idTag>9</idTag>
                        <comment></comment>
                        <type>0</type>
                        <columns>2</columns>
                        <rows>19</rows>
                        <columndata title="" type="0" datatype="1" fffunit="-1" unit_symbol="-" usage="1">
                            <name></name>
                        </columndata>
                        <columndata title="" type="0" datatype="1" fffunit="851971" unit_symbol="MPa" usage="2">
                            <name></name>
                        </columndata>
                        <row nb="1">0;30</row>
                        <row nb="2">0.003;34.2</row>
                        <row nb="3">0.0035;36</row>
                        <row nb="4">0.0054;37.7</row>
                        <row nb="5">0.01;39.1</row>
                        <row nb="6">0.03;43.6</row>
                        <row nb="7">0.04;45.7</row>
                        <row nb="8">0.05;46.9</row>
                        <row nb="9">0.07000000000000001;48.7</row>
                        <row nb="10">0.08500000000000001;49</row>
                        <row nb="11">0.1;49.3</row>
                        <row nb="12">0.13;49.9</row>
                        <row nb="13">0.17;50.8</row>
                        <row nb="14">0.24;52</row>
                        <row nb="15">0.3;52.6</row>
                        <row nb="16">0.4;53.5</row>
                        <row nb="17">0.5;54.5</row>
                        <row nb="18">0.8;56</row>
                        <row nb="19">1;56.9</row>
                    </sfDataTable>
                </flow_curve_table>
                <flow_curve_table>
                    <fc_temperature dimension="8" unit="1" unit_symbol="°C">1000.0</fc_temperature>
                    <fc_strainrate dimension="24" unit="0" unit_symbol="1/s">0.005</fc_strainrate>
                    <sfDataTable name="T=1000.0 °C,phi_p=0.005 1/s" type="0" columns="2" rows="19" version="12.1">
                        <name>T=1000.0 °C,phi_p=0.005 1/s</name>
                        <idTag>10</idTag>
                        <comment></comment>
                        <type>0</type>
                        <columns>2</columns>
                        <rows>19</rows>
                        <columndata title="" type="0" datatype="1" fffunit="-1" unit_symbol="-" usage="1">
                            <name></name>
                        </columndata>
                        <columndata title="" type="0" datatype="1" fffunit="851971" unit_symbol="MPa" usage="2">
                            <name></name>
                        </columndata>
                        <row nb="1">0;18</row>
                        <row nb="2">0.003;18</row>
                        <row nb="3">0.0035;18</row>
                        <row nb="4">0.0054;18</row>
                        <row nb="5">0.01;18</row>
                        <row nb="6">0.03;18</row>
                        <row nb="7">0.04;18</row>
                        <row nb="8">0.05;18</row>
                        <row nb="9">0.07000000000000001;18</row>
                        <row nb="10">0.08500000000000001;18</row>
                        <row nb="11">0.1;18</row>
                        <row nb="12">0.13;18</row>
                        <row nb="13">0.17;18</row>
                        <row nb="14">0.24;18</row>
                        <row nb="15">0.3;18</row>
                        <row nb="16">0.4;18</row>
                        <row nb="17">0.5;18</row>
                        <row nb="18">0.8;18</row>
                        <row nb="19">1;18</row>
                    </sfDataTable>
                </flow_curve_table>
                <flow_curve_table>
                    <fc_temperature dimension="8" unit="1" unit_symbol="°C">1100.0</fc_temperature>
                    <fc_strainrate dimension="24" unit="0" unit_symbol="1/s">0.005</fc_strainrate>
                    <sfDataTable name="T=1100.0 °C,phi_p=0.005 1/s" type="0" columns="2" rows="19" version="12.1">
                        <name>T=1100.0 °C,phi_p=0.005 1/s</name>
                        <idTag>11</idTag>
                        <comment></comment>
                        <type>0</type>
                        <columns>2</columns>
                        <rows>19</rows>
                        <columndata title="" type="0" datatype="1" fffunit="-1" unit_symbol="-" usage="1">
                            <name></name>
                        </columndata>
                        <columndata title="" type="0" datatype="1" fffunit="851971" unit_symbol="MPa" usage="2">
                            <name></name>
                        </columndata>
                        <row nb="1">0;5</row>
                        <row nb="2">0.003;5</row>
                        <row nb="3">0.0035;5</row>
                        <row nb="4">0.0054;5</row>
                        <row nb="5">0.01;5</row>
                        <row nb="6">0.03;5</row>
                        <row nb="7">0.04;5</row>
                        <row nb="8">0.05;5</row>
                        <row nb="9">0.07000000000000001;5</row>
                        <row nb="10">0.08500000000000001;5</row>
                        <row nb="11">0.1;5</row>
                        <row nb="12">0.13;5</row>
                        <row nb="13">0.17;5</row>
                        <row nb="14">0.24;5</row>
                        <row nb="15">0.3;5</row>
                        <row nb="16">0.4;5</row>
                        <row nb="17">0.5;5</row>
                        <row nb="18">0.8;5</row>
                        <row nb="19">1;5</row>
                    </sfDataTable>
                </flow_curve_table>
                <flow_curve_table>
                    <fc_temperature dimension="8" unit="1" unit_symbol="°C">1300.0</fc_temperature>
                    <fc_strainrate dimension="24" unit="0" unit_symbol="1/s">0.005</fc_strainrate>
                    <sfDataTable name="T=1300.0 °C,phi_p=0.005 1/s" type="0" columns="2" rows="19" version="12.1">
                        <name>T=1300.0 °C,phi_p=0.005 1/s</name>
                        <idTag>12</idTag>
                        <comment></comment>
                        <type>0</type>
                        <columns>2</columns>
                        <rows>19</rows>
                        <columndata title="" type="0" datatype="1" fffunit="-1" unit_symbol="-" usage="1">
                            <name></name>
                        </columndata>
                        <columndata title="" type="0" datatype="1" fffunit="851971" unit_symbol="MPa" usage="2">
                            <name></name>
                        </columndata>
                        <row nb="1">0;5</row>
                        <row nb="2">0.003;5</row>
                        <row nb="3">0.0035;5</row>
                        <row nb="4">0.0054;5</row>
                        <row nb="5">0.01;5</row>
                        <row nb="6">0.03;5</row>
                        <row nb="7">0.04;5</row>
                        <row nb="8">0.05;5</row>
                        <row nb="9">0.07000000000000001;5</row>
                        <row nb="10">0.08500000000000001;5</row>
                        <row nb="11">0.1;5</row>
                        <row nb="12">0.13;5</row>
                        <row nb="13">0.17;5</row>
                        <row nb="14">0.24;5</row>
                        <row nb="15">0.3;5</row>
                        <row nb="16">0.4;5</row>
                        <row nb="17">0.5;5</row>
                        <row nb="18">0.8;5</row>
                        <row nb="19">1;5</row>
                    </sfDataTable>
                </flow_curve_table>
            </flow_curves_table_approach>
            <cct_1_percent id="50">
                <sfDataTable name="CCT phase fraction" type="0" columns="2" rows="36" version="12.1">
                    <name>CCT phase fraction</name>
                    <idTag>212##Austenite</idTag>
                    <comment></comment>
                    <type>0</type>
                    <columns>2</columns>
                    <rows>36</rows>
                    <columndata title="Cooling rate" type="0" datatype="1" fffunit="2097152" unit_symbol="K/s" usage="1">
                        <name>Cooling rate</name>
                    </columndata>
                    <columndata title="Temperature" type="0" datatype="1" fffunit="524289" unit_symbol="°C" usage="2">
                        <name>Temperature</name>
                    </columndata>
                    <row nb="1">0.01;670.14</row>
                    <row nb="2">0.02;665.17</row>
                    <row nb="3">0.03;660.72</row>
                    <row nb="4">0.04;660.15</row>
                    <row nb="5">0.05;656.47</row>
                    <row nb="6">0.06;655.22</row>
                    <row nb="7">0.07000000000000001;655.15</row>
                    <row nb="8">0.08;651.12</row>
                    <row nb="9">0.09;650.27</row>
                    <row nb="10">0.1;650.1799999999999</row>
                    <row nb="11">0.2;640.22</row>
                    <row nb="12">0.3;632.59</row>
                    <row nb="13">0.4;625.76</row>
                    <row nb="14">0.5;620.85</row>
                    <row nb="15">0.6;616.72</row>
                    <row nb="16">0.7;615.23</row>
                    <row nb="17">0.8;610.3200000000001</row>
                    <row nb="18">0.9;605.61</row>
                    <row nb="19">1;603.77</row>
                    <row nb="20">2;570.84</row>
                    <row nb="21">3;565.65</row>
                    <row nb="22">4;565.16</row>
                    <row nb="23">5;560.5</row>
                    <row nb="24">6;560.25</row>
                    <row nb="25">7;559.0599999999999</row>
                    <row nb="26">8;555.67</row>
                    <row nb="27">9;555.36</row>
                    <row nb="28">10;555.26</row>
                    <row nb="29">20;540.87</row>
                    <row nb="30">30;530.75</row>
                    <row nb="31">40;518.3</row>
                    <row nb="32">50;506.6899999999999</row>
                    <row nb="33">60;492.78</row>
                    <row nb="34">70;476.34</row>
                    <row nb="35">80;454.9599999999999</row>
                    <row nb="36">90;421.1899999999999</row>
                </sfDataTable>
            </cct_1_percent>
            <cct_phase_fraction id="58">
                <sfDataTable name="CCT phase fraction" type="0" columns="2" rows="37" version="12.1">
                    <name>CCT phase fraction</name>
                    <idTag>216##Austenite</idTag>
                    <comment></comment>
                    <type>0</type>
                    <columns>2</columns>
                    <rows>37</rows>
                    <columndata title="Cooling rate" type="0" datatype="1" fffunit="2097152" unit_symbol="K/s" usage="1">
                        <name>Cooling rate</name>
                    </columndata>
                    <columndata title="Austenite fraction" type="0" datatype="1" fffunit="-1" unit_symbol="-" usage="2">
                        <name>Austenite fraction</name>
                    </columndata>
                    <row nb="1">0.01;0</row>
                    <row nb="2">0.02;0</row>
                    <row nb="3">0.03;0</row>
                    <row nb="4">0.04;0</row>
                    <row nb="5">0.05;0</row>
                    <row nb="6">0.06;0</row>
                    <row nb="7">0.07000000000000001;0</row>
                    <row nb="8">0.08;0</row>
                    <row nb="9">0.09;0</row>
                    <row nb="10">0.1;0</row>
                    <row nb="11">0.2;0</row>
                    <row nb="12">0.3;0</row>
                    <row nb="13">0.4;0</row>
                    <row nb="14">0.5;0</row>
                    <row nb="15">0.6;0</row>
                    <row nb="16">0.7;0</row>
                    <row nb="17">0.8;0</row>
                    <row nb="18">0.9;0</row>
                    <row nb="19">1;0</row>
                    <row nb="20">2;0</row>
                    <row nb="21">3;0</row>
                    <row nb="22">4;0</row>
                    <row nb="23">5;0</row>
                    <row nb="24">6;0</row>
                    <row nb="25">7;0</row>
                    <row nb="26">8;0</row>
                    <row nb="27">9;0</row>
                    <row nb="28">10;0</row>
                    <row nb="29">20;0</row>
                    <row nb="30">30;0</row>
                    <row nb="31">40;0</row>
                    <row nb="32">50;0</row>
                    <row nb="33">60;0</row>
                    <row nb="34">70;0</row>
                    <row nb="35">80;0</row>
                    <row nb="36">90;0</row>
                    <row nb="37">100;0</row>
                </sfDataTable>
            </cct_phase_fraction>
        </phase_transformation_austenit>
        <phase_transformation_ferrit>
            <youngs_modulus_table id="7">
                <sfDataTable name="Young's modulus" type="0" columns="2" rows="8" version="12.1">
                    <name>Young's modulus</name>
                    <idTag>42##Ferrite</idTag>
                    <comment></comment>
                    <type>0</type>
                    <columns>2</columns>
                    <rows>8</rows>
                    <columndata title="Temperature" type="0" datatype="1" fffunit="524289" unit_symbol="°C" usage="1">
                        <name>Temperature</name>
                    </columndata>
[...]
                        <row nb="12">0.13;62100000</row>
                        <row nb="13">0.17;62400000</row>
                        <row nb="14">0.24;63000000</row>
                        <row nb="15">0.3;63500000</row>
                        <row nb="16">0.4;64300000</row>
                        <row nb="17">0.5;65099999.99999999</row>
                        <row nb="18">0.8;67500000</row>
                        <row nb="19">1;69100000</row>
                    </sfDataTable>
                </flow_curve_table>
                <flow_curve_table>
                    <fc_temperature dimension="8" unit="1" unit_symbol="°C">1100.0</fc_temperature>
                    <fc_strainrate dimension="24" unit="0" unit_symbol="1/s">0.005</fc_strainrate>
                    <sfDataTable name="T=1100.0 °C,phi_p=0.005 1/s" type="0" columns="2" rows="19" version="12.1">
                        <name>T=1100.0 °C,phi_p=0.005 1/s</name>
                        <idTag>11</idTag>
                        <comment></comment>
                        <type>0</type>
                        <columns>2</columns>
                        <rows>19</rows>
                        <columndata title="" type="0" datatype="1" fffunit="-1" unit_symbol="-" usage="1">
                            <name></name>
                        </columndata>
                        <columndata title="" type="0" datatype="1" fffunit="851968" unit_symbol="Pa" usage="2">
                            <name></name>
                        </columndata>
                        <row nb="1">0;32000000</row>
                        <row nb="2">0.003;32000000</row>
                        <row nb="3">0.0035;32000000</row>
                        <row nb="4">0.0054;32000000</row>
                        <row nb="5">0.01;32000000</row>
                        <row nb="6">0.03;32000000</row>
                        <row nb="7">0.04;32000000</row>
                        <row nb="8">0.05;32000000</row>
                        <row nb="9">0.07000000000000001;32000000</row>
                        <row nb="10">0.08500000000000001;32000000</row>
                        <row nb="11">0.1;32000000</row>
                        <row nb="12">0.13;32000000</row>
                        <row nb="13">0.17;32000000</row>
                        <row nb="14">0.24;32000000</row>
                        <row nb="15">0.3;32000000</row>
                        <row nb="16">0.4;32000000</row>
                        <row nb="17">0.5;32000000</row>
                        <row nb="18">0.8;32000000</row>
                        <row nb="19">1;32000000</row>
                    </sfDataTable>
                </flow_curve_table>
                <flow_curve_table>
                    <fc_temperature dimension="8" unit="1" unit_symbol="°C">1300.0</fc_temperature>
                    <fc_strainrate dimension="24" unit="0" unit_symbol="1/s">0.005</fc_strainrate>
                    <sfDataTable name="T=1300.0 °C,phi_p=0.005 1/s" type="0" columns="2" rows="19" version="12.1">
                        <name>T=1300.0 °C,phi_p=0.005 1/s</name>
                        <idTag>12</idTag>
                        <comment></comment>
                        <type>0</type>
                        <columns>2</columns>
                        <rows>19</rows>
                        <columndata title="" type="0" datatype="1" fffunit="-1" unit_symbol="-" usage="1">
                            <name></name>
                        </columndata>
                        <columndata title="" type="0" datatype="1" fffunit="851968" unit_symbol="Pa" usage="2">
                            <name></name>
                        </columndata>
                        <row nb="1">0;5000000</row>
                        <row nb="2">0.003;5000000</row>
                        <row nb="3">0.0035;5000000</row>
                        <row nb="4">0.0054;5000000</row>
                        <row nb="5">0.01;5000000</row>
                        <row nb="6">0.03;5000000</row>
                        <row nb="7">0.04;5000000</row>
                        <row nb="8">0.05;5000000</row>
                        <row nb="9">0.07000000000000001;5000000</row>
                        <row nb="10">0.08500000000000001;5000000</row>
                        <row nb="11">0.1;5000000</row>
                        <row nb="12">0.13;5000000</row>
                        <row nb="13">0.17;5000000</row>
                        <row nb="14">0.24;5000000</row>
                        <row nb="15">0.3;5000000</row>
                        <row nb="16">0.4;5000000</row>
                        <row nb="17">0.5;5000000</row>
                        <row nb="18">0.8;5000000</row>
                        <row nb="19">1;5000000</row>
                    </sfDataTable>
                </flow_curve_table>
            </flow_curves_table_approach>
            <latent_heat_table id="59">
                <sfDataTable name="Latent heat" type="0" columns="2" rows="28" version="12.1">
                    <name>Latent heat</name>
                    <idTag>206##Martensite</idTag>
                    <comment></comment>
                    <type>0</type>
                    <columns>2</columns>
                    <rows>28</rows>
                    <columndata title="Temperature" type="0" datatype="1" fffunit="524289" unit_symbol="°C" usage="1">
                        <name>Temperature</name>
                    </columndata>
                    <columndata title="Latent heat" type="0" datatype="1" fffunit="1638401" unit_symbol="J/g" usage="2">
                        <name>Latent heat</name>
                    </columndata>
                    <row nb="1">25;126.16876</row>
                    <row nb="2">50;126.27691</row>
                    <row nb="3">100;126.25829</row>
                    <row nb="4">150;125.86156</row>
                    <row nb="5">200;124.99636</row>
                    <row nb="6">250;123.55834</row>
                    <row nb="7">300;121.42793</row>
                    <row nb="8">350;118.4674</row>
                    <row nb="9">400;114.51559</row>
                    <row nb="10">450;109.37889</row>
                    <row nb="11">500;102.81594</row>
                    <row nb="12">550;94.53012000000001</row>
                    <row nb="13">600;84.05530999999996</row>
                    <row nb="14">650;70.77767</row>
                    <row nb="15">700;53.74229000000003</row>
                    <row nb="16">750;32.9957</row>
                    <row nb="17">800;20.11351999999999</row>
                    <row nb="18">850;10.98466000000008</row>
                    <row nb="19">900;4.048639999999978</row>
                    <row nb="20">950;-1.461410000000001</row>
                    <row nb="21">1000;-5.978669999999966</row>
                    <row nb="22">1050;-9.774770000000103</row>
                    <row nb="23">1100;-13.03309000000002</row>
                    <row nb="24">1150;-15.88387999999998</row>
                    <row nb="25">1200;-18.42300999999998</row>
                    <row nb="26">1250;-20.72284999999999</row>
                    <row nb="27">1300;-22.82947000000001</row>
                    <row nb="28">1350;-24.78260999999998</row>
                </sfDataTable>
            </latent_heat_table>
            <volume_change id="60">
                <sfDataTable name="Volume change" type="0" columns="2" rows="18" version="12.1">
                    <name>Volume change</name>
                    <idTag>207##Martensite</idTag>
                    <comment></comment>
                    <type>0</type>
                    <columns>2</columns>
                    <rows>18</rows>
                    <columndata title="Temperature" type="0" datatype="1" fffunit="524289" unit_symbol="°C" usage="1">
                        <name>Temperature</name>
                    </columndata>
                    <columndata title="Size of dimension one" type="0" datatype="1" fffunit="-1" unit_symbol="-" usage="2">
                        <name>Volume change</name>
                    </columndata>
                    <row nb="1">25;0.007485717</row>
                    <row nb="2">50;0.007166917</row>
                    <row nb="3">100;0.006546317</row>
                    <row nb="4">150;0.005948117</row>
                    <row nb="5">200;0.005372037</row>
                    <row nb="6">250;0.004817707</row>
                    <row nb="7">300;0.004284767</row>
                    <row nb="8">350;0.003772897</row>
                    <row nb="9">400;0.003281737</row>
                    <row nb="10">450;0.002810987</row>
                    <row nb="11">500;0.002360307</row>
                    <row nb="12">550;0.001929387</row>
                    <row nb="13">600;0.001517917</row>
                    <row nb="14">650;0.001125587</row>
                    <row nb="15">700;0.000752077</row>
                    <row nb="16">750;0.000397107</row>
                    <row nb="17">800;6.03769e-5</row>
                    <row nb="18">809.47;0</row>
                </sfDataTable>
            </volume_change>
            <trip_coefficient id="61">
                <sfDataTable name="Trip coefficient" type="0" columns="2" rows="28" version="12.1">
                    <name>Trip coefficient</name>
                    <idTag>222##Martensite</idTag>
                    <comment></comment>
                    <type>0</type>
                    <columns>2</columns>
                    <rows>28</rows>
                    <columndata title="Temperature" type="0" datatype="1" fffunit="524289" unit_symbol="°C" usage="1">
                        <name>Temperature</name>
                    </columndata>
                    <columndata title="Trip coefficient" type="0" datatype="1" fffunit="2621440" unit_symbol="1/MPa" usage="2">
                        <name>Trip coefficient</name>
                    </columndata>
                    <row nb="1">25;0.0001698409850714298</row>
                    <row nb="2">50;0.0001789150458700008</row>
                    <row nb="3">100;0.000192149688439616</row>
                    <row nb="4">150;0.0002000340845049311</row>
                    <row nb="5">200;0.0002037742764614314</row>
                    <row nb="6">250;0.0002043141989234628</row>
                    <row nb="7">300;0.0002023965090128997</row>
                    <row nb="8">350;0.0001985930960392665</row>
                    <row nb="9">400;0.0001933607957981854</row>
                    <row nb="10">450;0.0001870525498329142</row>
                    <row nb="11">500;0.0001799573583014193</row>
                    <row nb="12">550;0.0001722993979935865</row>
                    <row nb="13">600;0.0001642657121856356</row>
                    <row nb="14">650;0.0001560044845087774</row>
                    <row nb="15">700;0.0001476408348263927</row>
                    <row nb="16">750;0.0001392741383944359</row>
                    <row nb="17">800;0.0001309882082301472</row>
                    <row nb="18">850;0.0001228524376306819</row>
                    <row nb="19">900;0.0001149240655774616</row>
                    <row nb="20">950;0.0001072511451117938</row>
                    <row nb="21">1000;9.98734422830874e-5</row>
                    <row nb="22">1050;9.282441356190749e-5</row>
                    <row nb="23">1100;8.613165142566244e-5</row>
                    <row nb="24">1150;7.981830274014972e-5</row>
                    <row nb="25">1200;7.390347401947841e-5</row>
                    <row nb="26">1250;6.840274198384179e-5</row>
                    <row nb="27">1300;6.332907315780333e-5</row>
                    <row nb="28">1350;5.869279725736368e-5</row>
                </sfDataTable>
            </trip_coefficient>
            <ttt_martensite_0_percent_temp dimension="8" unit="1" unit_symbol="°C">406.688</ttt_martensite_0_percent_temp>
            <ttt_martensite_50_percent_temp dimension="8" unit="1" unit_symbol="°C">373.4578152373158</ttt_martensite_50_percent_temp>
            <ttt_martensite_90_percent_temp dimension="8" unit="1" unit_symbol="°C">296.2997156385414</ttt_martensite_90_percent_temp>
            <cct_phase_fraction id="62">
                <sfDataTable name="CCT phase fraction" type="0" columns="2" rows="37" version="12.1">
                    <name>CCT phase fraction</name>
                    <idTag>216##Martensite</idTag>
                    <comment></comment>
                    <type>0</type>
                    <columns>2</columns>
                    <rows>37</rows>
                    <columndata title="Cooling rate" type="0" datatype="1" fffunit="2097152" unit_symbol="K/s" usage="1">
                        <name>Cooling rate</name>
                    </columndata>
                    <columndata title="Martensite fraction" type="0" datatype="1" fffunit="-1" unit_symbol="-" usage="2">
                        <name>Martensite fraction</name>
                    </columndata>
                    <row nb="1">0.01;0</row>
                    <row nb="2">0.02;0</row>
                    <row nb="3">0.03;0</row>
                    <row nb="4">0.04;0</row>
                    <row nb="5">0.05;0</row>
                    <row nb="6">0.06;0</row>
                    <row nb="7">0.07000000000000001;0</row>
                    <row nb="8">0.08;0</row>
                    <row nb="9">0.09;0</row>
                    <row nb="10">0.1;0</row>
                    <row nb="11">0.2;0</row>
                    <row nb="12">0.3;0</row>
                    <row nb="13">0.4;0</row>
                    <row nb="14">0.5;0</row>
                    <row nb="15">0.6;0</row>
                    <row nb="16">0.7;0</row>
                    <row nb="17">0.8;0</row>
                    <row nb="18">0.9;0</row>
                    <row nb="19">1;0</row>
                    <row nb="20">2;0</row>
                    <row nb="21">3;0</row>
                    <row nb="22">4;0</row>
                    <row nb="23">5;0</row>
                    <row nb="24">6;0</row>
                    <row nb="25">7;0</row>
                    <row nb="26">8;0</row>
                    <row nb="27">9;0</row>
                    <row nb="28">10;0</row>
                    <row nb="29">20;0</row>
                    <row nb="30">30;0</row>
                    <row nb="31">40;0</row>
                    <row nb="32">50;0</row>
                    <row nb="33">60;0</row>
                    <row nb="34">70;0</row>
                    <row nb="35">80;0</row>
                    <row nb="36">90;0</row>
                    <row nb="37">100;0.0351087</row>
                </sfDataTable>
            </cct_phase_fraction>
        </phase_transformation_martensite>
        <cct_0.2_percent_proof_stress id="63">
            <sfDataTable name="Proof stress" type="0" columns="2" rows="13" version="12.1">
                <name>Proof stress</name>
                <idTag>217##Default</idTag>
                <comment></comment>
                <type>0</type>
                <columns>2</columns>
                <rows>13</rows>
                <columndata title="Temperaturrate" type="0" datatype="1" fffunit="2097152" unit_symbol="K/s" usage="1">
                    <name>Cooling rate</name>
                </columndata>
                <columndata title="Druck" type="0" datatype="1" fffunit="851971" unit_symbol="MPa" usage="2">
                    <name>0.2% proof stress</name>
                </columndata>
                <row nb="1">0.01;355</row>
                <row nb="2">0.02;240</row>
                <row nb="3">0.3;240</row>
                <row nb="4">3;241</row>
                <row nb="5">6;287</row>
                <row nb="6">10;327</row>
                <row nb="7">20;387</row>
                <row nb="8">30;426</row>
                <row nb="9">60;499</row>
                <row nb="10">75;523</row>
                <row nb="11">100;556</row>
                <row nb="12">150;603</row>
                <row nb="13">300;684</row>
            </sfDataTable>
        </cct_0.2_percent_proof_stress>
        <cct_tensile_stress id="64">
            <sfDataTable name="Default" type="0" columns="2" rows="13" version="12.1">
                <name>Default</name>
                <idTag>218##Default</idTag>
                <comment></comment>
                <type>0</type>
                <columns>2</columns>
                <rows>13</rows>
                <columndata title="Temperaturrate" type="0" datatype="1" fffunit="2097152" unit_symbol="K/s" usage="1">
                    <name>Cooling rate</name>
                </columndata>
                <columndata title="Druck" type="0" datatype="1" fffunit="851971" unit_symbol="MPa" usage="2">
                    <name>Tensile stress</name>
                </columndata>
                <row nb="1">0.01;550</row>
                <row nb="2">0.02;490</row>
                <row nb="3">0.3;490</row>
                <row nb="4">3;495</row>
                <row nb="5">6;553</row>
                <row nb="6">10;602</row>
                <row nb="7">20;675</row>
                <row nb="8">30;721</row>
                <row nb="9">60;804</row>
                <row nb="10">75;831</row>
                <row nb="11">100;866</row>
                <row nb="12">150;915</row>
                <row nb="13">300;989</row>
            </sfDataTable>
        </cct_tensile_stress>
        <cct_hardness id="65">
            <sfDataTable name="Hardness" type="0" columns="2" rows="14" version="12.1">
                <name>Hardness</name>
                <idTag>219##Default</idTag>
                <comment></comment>
                <type>0</type>
                <columns>2</columns>
                <rows>14</rows>
                <columndata title="Temperaturrate" type="0" datatype="1" fffunit="2097152" unit_symbol="K/s" usage="1">
                    <name>Cooling rate</name>
                </columndata>
                <columndata title="Härte" type="0" datatype="1" fffunit="2424837" unit_symbol="HV" usage="2">
                    <name>Hardness</name>
                </columndata>
                <row nb="1">0.01;150</row>
                <row nb="2">0.02;150</row>
                <row nb="3">0.3;150</row>
                <row nb="4">3;169.9999999999999</row>
                <row nb="5">6;186.9999999999999</row>
                <row nb="6">8.571428571428571;197.9999999999999</row>
                <row nb="7">15;218.9999999999999</row>
                <row nb="8">20;231</row>
                <row nb="9">30;251</row>
                <row nb="10">60;286.9999999999999</row>
                <row nb="11">75;299.9999999999998</row>
                <row nb="12">100;315.9999999999999</row>
                <row nb="13">150;340</row>
                <row nb="14">300;374.9999999999998</row>
            </sfDataTable>
        </cct_hardness>
    </phase_transformation>
    <chemical_composition>
        <element name="Al" min="0" max="0" fix="0.05"/>
        <element name="C" min="0" max="0" fix="0.17"/>
        <element name="Fe" min="0" max="0" fix="98.127"/>
        <element name="Mn" min="0" max="0" fix="1.6"/>
        <element name="N" min="0" max="0" fix="0.005"/>
        <element name="P" min="0" max="0" fix="0.017"/>
        <element name="S" min="0" max="0" fix="0.011"/>
        <element name="Si" min="0" max="0" fix="0.02"/>
    </chemical_composition>
    <misc>
        <misc_modified>true</misc_modified>
    </misc>
</sfMaterialData>
